<?xml version="1.0" encoding="UTF-8"?>

<!-- generated on 2022-10-02 11:40:23 by Eclipse SUMO duarouter Version 1.12.0
<configuration xmlns:xsi="http://www.w3.org/2001/XMLSchema-instance" xsi:noNamespaceSchemaLocation="http://sumo.dlr.de/xsd/duarouterConfiguration.xsd">

    <input>
        <net-file value="C:\Users\radan\Sumo\2022-10-02-11-33-29\osm.net.xml"/>
        <route-files value="C:\Users\radan\Sumo\2022-10-02-11-33-29\osm.bicycle.trips.xml"/>
    </input>

    <output>
        <output-file value="C:\Users\radan\Sumo\2022-10-02-11-33-29\osm.bicycle.trips.xml.tmp"/>
        <write-trips value="true"/>
    </output>

    <time>
        <begin value="0"/>
        <end value="3600"/>
    </time>

    <report>
        <no-warnings value="true"/>
        <ignore-errors value="true"/>
        <no-step-log value="true"/>
    </report>

</configuration>
-->

<routes xmlns:xsi="http://www.w3.org/2001/XMLSchema-instance" xsi:noNamespaceSchemaLocation="http://sumo.dlr.de/xsd/routes_file.xsd">
    <vType id="bike_bicycle" vClass="bicycle"/>
    <trip id="bike0" type="bike_bicycle" depart="0.00" departLane="best" from="175150005#2" to="-110234335"/>
    <trip id="bike1" type="bike_bicycle" depart="0.75" departLane="best" from="-36285969#0" to="-327581757#0"/>
    <trip id="bike2" type="bike_bicycle" depart="1.50" departLane="best" from="308358626" to="26686177#1"/>
    <trip id="bike3" type="bike_bicycle" depart="2.25" departLane="best" from="640912120#0" to="-13867697#0"/>
    <trip id="bike4" type="bike_bicycle" depart="3.00" departLane="best" departSpeed="max" from="-816845953" to="-111027997"/>
    <trip id="bike5" type="bike_bicycle" depart="3.75" departLane="best" from="-26500771#1" to="128933610#0"/>
    <trip id="bike6" type="bike_bicycle" depart="4.50" departLane="best" departSpeed="max" from="-1088548100" to="-276362694#5"/>
    <trip id="bike7" type="bike_bicycle" depart="5.25" departLane="best" from="19836111#3" to="143939766#2"/>
    <trip id="bike8" type="bike_bicycle" depart="5.99" departLane="best" from="-26574007#1" to="173068143#1"/>
    <trip id="bike10" type="bike_bicycle" depart="7.49" departLane="best" from="431796778" to="303519497#0"/>
    <trip id="bike11" type="bike_bicycle" depart="8.24" departLane="best" from="-540424553" to="-21630231#3"/>
    <trip id="bike12" type="bike_bicycle" depart="8.99" departLane="best" from="874572203" to="-696763621#1"/>
    <trip id="bike13" type="bike_bicycle" depart="9.74" departLane="best" from="-133135209#0" to="-143564022#1"/>
    <trip id="bike15" type="bike_bicycle" depart="11.24" departLane="best" from="433545678#1" to="34397013#1"/>
    <trip id="bike16" type="bike_bicycle" depart="11.99" departLane="best" from="118237602#0" to="92743900#0"/>
    <trip id="bike17" type="bike_bicycle" depart="12.74" departLane="best" departSpeed="max" from="-669543293#1" to="151509457#0"/>
    <trip id="bike18" type="bike_bicycle" depart="13.49" departLane="best" from="4709086#5" to="21629395#3"/>
    <trip id="bike20" type="bike_bicycle" depart="14.99" departLane="best" from="26084694#1" to="-113758220#0"/>
    <trip id="bike21" type="bike_bicycle" depart="15.74" departLane="best" from="-276693227#1" to="-503831064#0"/>
    <trip id="bike22" type="bike_bicycle" depart="16.48" departLane="best" departSpeed="max" from="-125303802" to="-345276763#2"/>
    <trip id="bike23" type="bike_bicycle" depart="17.23" departLane="best" from="-13867697#4" to="-4709084#1"/>
    <trip id="bike24" type="bike_bicycle" depart="17.98" departLane="best" from="172969247" to="-816293340#0"/>
    <trip id="bike25" type="bike_bicycle" depart="18.73" departLane="best" from="-640921863#1" to="-30326326#0"/>
    <trip id="bike26" type="bike_bicycle" depart="19.48" departLane="best" from="-345306209#0" to="825287241#1"/>
    <trip id="bike27" type="bike_bicycle" depart="20.23" departLane="best" from="19792508" to="202252905#1"/>
    <trip id="bike28" type="bike_bicycle" depart="20.98" departLane="best" from="-20797771#0" to="34175400#1"/>
    <trip id="bike29" type="bike_bicycle" depart="21.73" departLane="best" from="-19847463#1" to="-88366604#0"/>
    <trip id="bike30" type="bike_bicycle" depart="22.48" departLane="best" from="957187171" to="23047919#1"/>
    <trip id="bike31" type="bike_bicycle" depart="23.23" departLane="best" from="128607212#6" to="27993762#0"/>
    <trip id="bike32" type="bike_bicycle" depart="23.98" departLane="best" from="500534489#0" to="427981606#1"/>
    <trip id="bike33" type="bike_bicycle" depart="24.73" departLane="best" departSpeed="max" from="-279497827" to="-111028082#1"/>
    <trip id="bike34" type="bike_bicycle" depart="25.48" departLane="best" from="-4662493" to="-449117240"/>
    <trip id="bike35" type="bike_bicycle" depart="26.23" departLane="best" from="-25946683#0" to="8614203#0"/>
    <trip id="bike36" type="bike_bicycle" depart="26.97" departLane="best" from="598083383#0" to="-60577099#1"/>
    <trip id="bike37" type="bike_bicycle" depart="27.72" departLane="best" from="202515063" to="-944009257"/>
    <trip id="bike38" type="bike_bicycle" depart="28.47" departLane="best" from="749826430#4" to="113203113#0"/>
    <trip id="bike39" type="bike_bicycle" depart="29.22" departLane="best" departSpeed="max" from="-34518613" to="-394912794#1"/>
    <trip id="bike40" type="bike_bicycle" depart="29.97" departLane="best" from="129256094" to="-432102347"/>
    <trip id="bike41" type="bike_bicycle" depart="30.72" departLane="best" departSpeed="max" from="142654711#0" to="729399516#1"/>
    <trip id="bike43" type="bike_bicycle" depart="32.22" departLane="best" from="982700628" to="129259666"/>
    <trip id="bike44" type="bike_bicycle" depart="32.97" departLane="best" from="-133083944" to="-113758957#3"/>
    <trip id="bike45" type="bike_bicycle" depart="33.72" departLane="best" from="-14354808#1" to="223098437#1"/>
    <trip id="bike46" type="bike_bicycle" depart="34.47" departLane="best" from="4048673#4" to="104849465"/>
    <trip id="bike47" type="bike_bicycle" depart="35.22" departLane="best" from="-115677242#5" to="-887939023#0"/>
    <trip id="bike48" type="bike_bicycle" depart="35.97" departLane="best" from="976307709" to="139672074#1"/>
    <trip id="bike49" type="bike_bicycle" depart="36.72" departLane="best" departSpeed="max" from="914463336" to="609799531"/>
    <trip id="bike50" type="bike_bicycle" depart="37.47" departLane="best" departSpeed="max" from="-104849469#1" to="332822225"/>
    <trip id="bike51" type="bike_bicycle" depart="38.21" departLane="best" from="22805349#0" to="143058879#0"/>
    <trip id="bike52" type="bike_bicycle" depart="38.96" departLane="best" from="-345306208#0" to="231637890#1"/>
    <trip id="bike53" type="bike_bicycle" depart="39.71" departLane="best" from="-143575778" to="10848286#3"/>
    <trip id="bike55" type="bike_bicycle" depart="41.21" departLane="best" from="59665909#1" to="-433545675"/>
    <trip id="bike56" type="bike_bicycle" depart="41.96" departLane="best" from="1085270991#0" to="-24897810#9"/>
    <trip id="bike57" type="bike_bicycle" depart="42.71" departLane="best" from="740525944#0" to="623095600#0"/>
    <trip id="bike58" type="bike_bicycle" depart="43.46" departLane="best" from="-427981604#1" to="22810418#1"/>
    <trip id="bike59" type="bike_bicycle" depart="44.21" departLane="best" from="15678238#2" to="-21494301"/>
    <trip id="bike60" type="bike_bicycle" depart="44.96" departLane="best" from="343928797#1" to="143527915#1"/>
    <trip id="bike61" type="bike_bicycle" depart="45.71" departLane="best" from="365267526#7" to="14008045#14"/>
    <trip id="bike62" type="bike_bicycle" depart="46.46" departLane="best" from="-1005511827#1" to="-636308502"/>
    <trip id="bike63" type="bike_bicycle" depart="47.21" departLane="best" from="-108098095#4" to="8065593#2"/>
    <trip id="bike64" type="bike_bicycle" depart="47.96" departLane="best" from="60579581#2" to="531488941#1"/>
    <trip id="bike65" type="bike_bicycle" depart="48.70" departLane="best" from="-453768734#2" to="-11987530#0"/>
    <trip id="bike66" type="bike_bicycle" depart="49.45" departLane="best" departSpeed="max" from="60578967#0" to="86645418#1"/>
    <trip id="bike67" type="bike_bicycle" depart="50.20" departLane="best" from="-129092200#0" to="118387910#2"/>
    <trip id="bike68" type="bike_bicycle" depart="50.95" departLane="best" from="-118387904" to="39774364#6"/>
    <trip id="bike69" type="bike_bicycle" depart="51.70" departLane="best" from="345306198#12" to="-17098453#2"/>
    <trip id="bike70" type="bike_bicycle" depart="52.45" departLane="best" from="1011027531#5" to="146720381"/>
    <trip id="bike71" type="bike_bicycle" depart="53.20" departLane="best" from="-345276761#0" to="640912120#1"/>
    <trip id="bike72" type="bike_bicycle" depart="53.95" departLane="best" from="-821229578#2" to="-308354936#1"/>
    <trip id="bike73" type="bike_bicycle" depart="54.70" departLane="best" from="118237975#1" to="34398218#3"/>
    <trip id="bike74" type="bike_bicycle" depart="55.45" departLane="best" from="-24897810#7" to="-593546522#1"/>
    <trip id="bike75" type="bike_bicycle" depart="56.20" departLane="best" from="972903396#3" to="24811436#3"/>
    <trip id="bike76" type="bike_bicycle" depart="56.95" departLane="best" from="-881267972#1" to="133101681#9"/>
    <trip id="bike77" type="bike_bicycle" depart="57.70" departLane="best" from="-15430913#3" to="-33127012"/>
    <trip id="bike78" type="bike_bicycle" depart="58.45" departLane="best" from="-531490211#1" to="173041356#0"/>
    <trip id="bike79" type="bike_bicycle" depart="59.20" departLane="best" departSpeed="max" from="-27993674#6" to="-32108980#1"/>
    <trip id="bike80" type="bike_bicycle" depart="59.94" departLane="best" from="-122119062#1" to="22738778#4"/>
    <trip id="bike81" type="bike_bicycle" depart="60.69" departLane="best" from="-278869960" to="757691851"/>
    <trip id="bike82" type="bike_bicycle" depart="61.44" departLane="best" from="545273066" to="-128607213#1"/>
    <trip id="bike83" type="bike_bicycle" depart="62.19" departLane="best" from="-291623198" to="26422433#2"/>
    <trip id="bike84" type="bike_bicycle" depart="62.94" departLane="best" from="-261369010#1" to="-173073792#0"/>
    <trip id="bike86" type="bike_bicycle" depart="64.44" departLane="best" from="-98827820" to="442189491#0"/>
    <trip id="bike87" type="bike_bicycle" depart="65.19" departLane="best" from="433552310" to="-26496539#1"/>
    <trip id="bike88" type="bike_bicycle" depart="65.94" departLane="best" from="-134468535" to="1073510208"/>
    <trip id="bike89" type="bike_bicycle" depart="66.69" departLane="best" from="-825287226#1" to="113755787"/>
    <trip id="bike90" type="bike_bicycle" depart="67.44" departLane="best" departSpeed="max" from="28806840" to="26621811#0"/>
    <trip id="bike91" type="bike_bicycle" depart="68.19" departLane="best" from="943903130#1" to="-143952422#7"/>
    <trip id="bike92" type="bike_bicycle" depart="68.94" departLane="best" from="-770390580#3" to="-713301819#0"/>
    <trip id="bike93" type="bike_bicycle" depart="69.69" departLane="best" from="545908772" to="-39634020#7"/>
    <trip id="bike94" type="bike_bicycle" depart="70.43" departLane="best" from="-22805399#4" to="111027985#4"/>
    <trip id="bike95" type="bike_bicycle" depart="71.18" departLane="best" from="-8163851#2" to="-4709294#2"/>
    <trip id="bike96" type="bike_bicycle" depart="71.93" departLane="best" from="-31788412" to="79290552#5"/>
    <trip id="bike97" type="bike_bicycle" depart="72.68" departLane="best" from="-894432280" to="610881092#3"/>
    <trip id="bike99" type="bike_bicycle" depart="74.18" departLane="best" from="98827592#1" to="545095543"/>
    <trip id="bike100" type="bike_bicycle" depart="74.93" departLane="best" from="906254208#2" to="8026784#5"/>
    <trip id="bike101" type="bike_bicycle" depart="75.68" departLane="best" from="513240533" to="-22758894#2"/>
    <trip id="bike102" type="bike_bicycle" depart="76.43" departLane="best" from="104845765#4" to="-309596851#0"/>
    <trip id="bike103" type="bike_bicycle" depart="77.18" departLane="best" departSpeed="max" from="-765976203#1" to="-11988563#1"/>
    <trip id="bike104" type="bike_bicycle" depart="77.93" departLane="best" departSpeed="max" from="-669696445" to="945870936#1"/>
    <trip id="bike105" type="bike_bicycle" depart="78.68" departLane="best" from="-345276761#3" to="44043569#3"/>
    <trip id="bike106" type="bike_bicycle" depart="79.43" departLane="best" from="-932658374#0" to="104894163"/>
    <trip id="bike107" type="bike_bicycle" depart="80.18" departLane="best" from="874572206" to="976581517"/>
    <trip id="bike108" type="bike_bicycle" depart="80.92" departLane="best" from="128553074#2" to="33140647#1"/>
    <trip id="bike109" type="bike_bicycle" depart="81.67" departLane="best" from="-183640760#0" to="-531835975#1"/>
    <trip id="bike110" type="bike_bicycle" depart="82.42" departLane="best" departSpeed="max" from="906254203" to="16781884#0"/>
    <trip id="bike111" type="bike_bicycle" depart="83.17" departLane="best" from="11989055#3" to="36790084#1"/>
    <trip id="bike112" type="bike_bicycle" depart="83.92" departLane="best" from="-113872132#0" to="170515987#0"/>
    <trip id="bike113" type="bike_bicycle" depart="84.67" departLane="best" from="1092567397#1" to="59248407#0"/>
    <trip id="bike114" type="bike_bicycle" depart="85.42" departLane="best" from="-188982550#0" to="887942387"/>
    <trip id="bike115" type="bike_bicycle" depart="86.17" departLane="best" from="-125453475#2" to="-25946686#0"/>
    <trip id="bike116" type="bike_bicycle" depart="86.92" departLane="best" from="143588190#6" to="26675757#2"/>
    <trip id="bike117" type="bike_bicycle" depart="87.67" departLane="best" departSpeed="max" from="-28446287" to="-16277376#8"/>
    <trip id="bike118" type="bike_bicycle" depart="88.42" departLane="best" from="625712412" to="-392506835#1"/>
    <trip id="bike119" type="bike_bicycle" depart="89.17" departLane="best" from="143588183#1" to="21629841#1"/>
    <trip id="bike120" type="bike_bicycle" depart="89.92" departLane="best" departSpeed="max" from="-812418919#1" to="169847024"/>
    <trip id="bike121" type="bike_bicycle" depart="90.67" departLane="best" from="113755726#0" to="8168863#2"/>
    <trip id="bike122" type="bike_bicycle" depart="91.42" departLane="best" from="-254679582#1" to="328329432#1"/>
    <trip id="bike123" type="bike_bicycle" depart="92.16" departLane="best" from="-29188887#0" to="-945418660"/>
    <trip id="bike124" type="bike_bicycle" depart="92.91" departLane="best" from="22124111" to="-545273068"/>
    <trip id="bike125" type="bike_bicycle" depart="93.66" departLane="best" departSpeed="max" from="-46981647#2" to="379518958#0"/>
    <trip id="bike126" type="bike_bicycle" depart="94.41" departLane="best" departSpeed="max" from="-122498266#1" to="111550180"/>
    <trip id="bike128" type="bike_bicycle" depart="95.91" departLane="best" from="-123205468#3" to="-309596830#8"/>
    <trip id="bike129" type="bike_bicycle" depart="96.66" departLane="best" from="-345276761#3" to="8151690#0"/>
    <trip id="bike130" type="bike_bicycle" depart="97.41" departLane="best" from="610881075#2" to="663282591#0"/>
    <trip id="bike131" type="bike_bicycle" depart="98.16" departLane="best" from="-640912120#1" to="-21970598#0"/>
    <trip id="bike132" type="bike_bicycle" depart="98.91" departLane="best" from="475594884#1" to="30964502#5"/>
    <trip id="bike133" type="bike_bicycle" depart="99.66" departLane="best" from="15804265#1" to="95384458"/>
    <trip id="bike134" type="bike_bicycle" depart="100.41" departLane="best" departSpeed="max" from="201753146#0" to="-104845671#2"/>
    <trip id="bike135" type="bike_bicycle" depart="101.16" departLane="best" from="4558723#5" to="-545267386#0"/>
    <trip id="bike136" type="bike_bicycle" depart="101.91" departLane="best" from="21618381#2" to="832710481"/>
    <trip id="bike137" type="bike_bicycle" depart="102.65" departLane="best" from="-161570982#0" to="-159381890"/>
    <trip id="bike138" type="bike_bicycle" depart="103.40" departLane="best" departSpeed="max" from="-143058870#1" to="15231275#3"/>
    <trip id="bike139" type="bike_bicycle" depart="104.15" departLane="best" from="-356384761" to="19836352#1"/>
    <trip id="bike140" type="bike_bicycle" depart="104.90" departLane="best" from="27431386#0" to="-282120686#0"/>
    <trip id="bike141" type="bike_bicycle" depart="105.65" departLane="best" from="171607771#1" to="-4341537#1"/>
    <trip id="bike142" type="bike_bicycle" depart="106.40" departLane="best" from="105596379#10" to="757691850#1"/>
    <trip id="bike143" type="bike_bicycle" depart="107.15" departLane="best" from="50344612#0" to="-143058818#0"/>
    <trip id="bike144" type="bike_bicycle" depart="107.90" departLane="best" from="-825287226#1" to="-4709056#2"/>
    <trip id="bike145" type="bike_bicycle" depart="108.65" departLane="best" from="-102029790#4" to="4212122#1"/>
    <trip id="bike146" type="bike_bicycle" depart="109.40" departLane="best" from="173068149#0" to="-42939752#7"/>
    <trip id="bike147" type="bike_bicycle" depart="110.15" departLane="best" departSpeed="max" from="31363694" to="149844190#1"/>
    <trip id="bike148" type="bike_bicycle" depart="110.90" departLane="best" from="-852739283#4" to="-104849467#0"/>
    <trip id="bike149" type="bike_bicycle" depart="111.65" departLane="best" departSpeed="max" from="-124329008#2" to="672650928"/>
    <trip id="bike150" type="bike_bicycle" depart="112.40" departLane="best" from="689363889#2" to="143952414#1"/>
    <trip id="bike151" type="bike_bicycle" depart="113.15" departLane="best" from="4789855#4" to="16944215#21"/>
    <trip id="bike152" type="bike_bicycle" depart="113.89" departLane="best" from="-173026671#0" to="-170515992"/>
    <trip id="bike153" type="bike_bicycle" depart="114.64" departLane="best" from="-454629433#0" to="733564024#2"/>
    <trip id="bike154" type="bike_bicycle" depart="115.39" departLane="best" from="41385097#0" to="609799530#2"/>
    <trip id="bike155" type="bike_bicycle" depart="116.14" departLane="best" departSpeed="max" from="669643495#0" to="-303995338#0"/>
    <trip id="bike156" type="bike_bicycle" depart="116.89" departLane="best" from="-31728010#2" to="-151836849#2"/>
    <trip id="bike157" type="bike_bicycle" depart="117.64" departLane="best" from="371450949" to="680101475"/>
    <trip id="bike158" type="bike_bicycle" depart="118.39" departLane="best" departSpeed="max" from="-786356786" to="216542874#0"/>
    <trip id="bike159" type="bike_bicycle" depart="119.14" departLane="best" from="-183640723" to="8103310"/>
    <trip id="bike160" type="bike_bicycle" depart="119.89" departLane="best" departSpeed="max" from="555924332#0" to="934786379"/>
    <trip id="bike162" type="bike_bicycle" depart="121.39" departLane="best" departSpeed="max" from="-1086426209#1" to="345703954#2"/>
    <trip id="bike163" type="bike_bicycle" depart="122.14" departLane="best" departSpeed="max" from="-513165932" to="812418917#2"/>
    <trip id="bike164" type="bike_bicycle" depart="122.89" departLane="best" from="427981599#1" to="612633906#1"/>
    <trip id="bike166" type="bike_bicycle" depart="124.38" departLane="best" from="39700404#7" to="-157875376#0"/>
    <trip id="bike167" type="bike_bicycle" depart="125.13" departLane="best" from="59248402" to="60578967#3"/>
    <trip id="bike168" type="bike_bicycle" depart="125.88" departLane="best" from="-26675337#1" to="495427980#1"/>
    <trip id="bike169" type="bike_bicycle" depart="126.63" departLane="best" from="-945418660" to="-57402084#0"/>
    <trip id="bike170" type="bike_bicycle" depart="127.38" departLane="best" departSpeed="max" from="409504273#0" to="-33764363#0"/>
    <trip id="bike171" type="bike_bicycle" depart="128.13" departLane="best" from="-10850193#2" to="-265937170#1"/>
    <trip id="bike172" type="bike_bicycle" depart="128.88" departLane="best" from="-50110382#2" to="612691084#1"/>
    <trip id="bike173" type="bike_bicycle" depart="129.63" departLane="best" from="899260462" to="-4709299#1"/>
    <trip id="bike174" type="bike_bicycle" depart="130.38" departLane="best" departSpeed="max" from="182933950#0" to="-955286778#1"/>
    <trip id="bike175" type="bike_bicycle" depart="131.13" departLane="best" departSpeed="max" from="939912086" to="14299058#2"/>
    <trip id="bike177" type="bike_bicycle" depart="132.63" departLane="best" from="910758304#2" to="-24897810#7"/>
    <trip id="bike178" type="bike_bicycle" depart="133.38" departLane="best" from="885719765#1" to="-439014688#1"/>
    <trip id="bike179" type="bike_bicycle" depart="134.13" departLane="best" from="-14308639#3" to="1084500548#0"/>
    <trip id="bike180" type="bike_bicycle" depart="134.87" departLane="best" from="286249439#0" to="-598313144#0"/>
    <trip id="bike181" type="bike_bicycle" depart="135.62" departLane="best" from="15432147#2" to="130071883#0"/>
    <trip id="bike182" type="bike_bicycle" depart="136.37" departLane="best" from="-696664240" to="16587577#0"/>
    <trip id="bike183" type="bike_bicycle" depart="137.12" departLane="best" from="-327581754#0" to="31457724"/>
    <trip id="bike184" type="bike_bicycle" depart="137.87" departLane="best" departSpeed="max" from="-1011027528" to="801770893#2"/>
    <trip id="bike185" type="bike_bicycle" depart="138.62" departLane="best" from="118237891#2" to="332808487#2"/>
    <trip id="bike186" type="bike_bicycle" depart="139.37" departLane="best" from="31363718#5" to="26500692#3"/>
    <trip id="bike187" type="bike_bicycle" depart="140.12" departLane="best" from="-612691092#1" to="-128553070#0"/>
    <trip id="bike188" type="bike_bicycle" depart="140.87" departLane="best" from="21629395#4" to="-667481410"/>
    <trip id="bike189" type="bike_bicycle" depart="141.62" departLane="best" departSpeed="max" from="-463133306#1" to="586426035"/>
    <trip id="bike190" type="bike_bicycle" depart="142.37" departLane="best" from="27786782#0" to="-545287630#0"/>
    <trip id="bike191" type="bike_bicycle" depart="143.12" departLane="best" from="-4558700#0" to="1000063460"/>
    <trip id="bike192" type="bike_bicycle" depart="143.87" departLane="best" departSpeed="max" from="-770390579#1" to="-531488939"/>
    <trip id="bike193" type="bike_bicycle" depart="144.62" departLane="best" from="-15804508#0" to="104845671#4"/>
    <trip id="bike194" type="bike_bicycle" depart="145.37" departLane="best" from="8148882#0" to="26686255#1"/>
    <trip id="bike195" type="bike_bicycle" depart="146.11" departLane="best" departSpeed="max" from="686267438#0" to="210554172#4"/>
    <trip id="bike196" type="bike_bicycle" depart="146.86" departLane="best" departSpeed="max" from="-432735001" to="14614100#1"/>
    <trip id="bike197" type="bike_bicycle" depart="147.61" departLane="best" departSpeed="max" from="-1001089202" to="-50108292#2"/>
    <trip id="bike199" type="bike_bicycle" depart="149.11" departLane="best" from="202070719" to="113755671#1"/>
    <trip id="bike200" type="bike_bicycle" depart="149.86" departLane="best" from="-887942387" to="-309596834#8"/>
    <trip id="bike201" type="bike_bicycle" depart="150.61" departLane="best" departSpeed="max" from="-996510986" to="747442427#1"/>
    <trip id="bike202" type="bike_bicycle" depart="151.36" departLane="best" from="41385096#1" to="-22805466#6"/>
    <trip id="bike203" type="bike_bicycle" depart="152.11" departLane="best" departSpeed="max" from="-129043124" to="133083936"/>
    <trip id="bike204" type="bike_bicycle" depart="152.86" departLane="best" from="170851986#4" to="-690496320"/>
    <trip id="bike205" type="bike_bicycle" depart="153.61" departLane="best" from="4558737#0" to="375435009#2"/>
    <trip id="bike206" type="bike_bicycle" depart="154.36" departLane="best" departSpeed="max" from="222122339#0" to="-33127012"/>
    <trip id="bike207" type="bike_bicycle" depart="155.11" departLane="best" from="-244529838#0" to="-1097805386"/>
    <trip id="bike208" type="bike_bicycle" depart="155.86" departLane="best" from="-309596834#6" to="114552683#5"/>
    <trip id="bike209" type="bike_bicycle" depart="156.60" departLane="best" from="513855430#1" to="-129155642"/>
    <trip id="bike210" type="bike_bicycle" depart="157.35" departLane="best" from="-798274850#3" to="22662904#1"/>
    <trip id="bike211" type="bike_bicycle" depart="158.10" departLane="best" from="-23244914#1" to="29188894#1"/>
    <trip id="bike212" type="bike_bicycle" depart="158.85" departLane="best" from="1073510208" to="-373494431"/>
    <trip id="bike213" type="bike_bicycle" depart="159.60" departLane="best" from="20333606" to="-1040766361#0"/>
    <trip id="bike214" type="bike_bicycle" depart="160.35" departLane="best" from="330618135" to="420334089#1"/>
    <trip id="bike215" type="bike_bicycle" depart="161.10" departLane="best" from="-14296504#1" to="105780643#0"/>
    <trip id="bike216" type="bike_bicycle" depart="161.85" departLane="best" from="-21630510#2" to="88375324#3"/>
    <trip id="bike217" type="bike_bicycle" depart="162.60" departLane="best" from="113623046#5" to="-114614711#0"/>
    <trip id="bike219" type="bike_bicycle" depart="164.10" departLane="best" from="-934873663#0" to="46981647#1"/>
    <trip id="bike220" type="bike_bicycle" depart="164.85" departLane="best" from="217850404#4" to="954992560"/>
    <trip id="bike221" type="bike_bicycle" depart="165.60" departLane="best" from="143588284#0" to="874543332"/>
    <trip id="bike222" type="bike_bicycle" depart="166.35" departLane="best" from="632927150#1" to="20796774#1"/>
    <trip id="bike223" type="bike_bicycle" depart="167.10" departLane="best" from="276362698" to="128933602#1"/>
    <trip id="bike224" type="bike_bicycle" depart="167.84" departLane="best" from="4709299#1" to="14614100#0"/>
    <trip id="bike225" type="bike_bicycle" depart="168.59" departLane="best" from="663282590" to="356935861#1"/>
    <trip id="bike226" type="bike_bicycle" depart="169.34" departLane="best" departSpeed="max" from="1011027525" to="-42756557#1"/>
    <trip id="bike227" type="bike_bicycle" depart="170.09" departLane="best" from="-31363718#5" to="22805374"/>
    <trip id="bike228" type="bike_bicycle" depart="170.84" departLane="best" from="345306198#12" to="133144145#3"/>
    <trip id="bike229" type="bike_bicycle" depart="171.59" departLane="best" departSpeed="max" from="16780990#0" to="-4648153#1"/>
    <trip id="bike230" type="bike_bicycle" depart="172.34" departLane="best" departSpeed="max" from="-124340874" to="-500534478#1"/>
    <trip id="bike231" type="bike_bicycle" depart="173.09" departLane="best" departSpeed="max" from="-356367783" to="-61352242"/>
    <trip id="bike232" type="bike_bicycle" depart="173.84" departLane="best" from="118387924" to="-189565639#1"/>
    <trip id="bike233" type="bike_bicycle" depart="174.59" departLane="best" departSpeed="max" from="-28140257" to="291620964#5"/>
    <trip id="bike234" type="bike_bicycle" depart="175.34" departLane="best" from="261369536#0" to="-124340853#1"/>
    <trip id="bike235" type="bike_bicycle" depart="176.09" departLane="best" from="-78898222#0" to="143572268"/>
    <trip id="bike236" type="bike_bicycle" depart="176.84" departLane="best" from="-801770893#5" to="-28806840"/>
    <trip id="bike237" type="bike_bicycle" depart="177.59" departLane="best" from="-813899228#1" to="757531001"/>
    <trip id="bike238" type="bike_bicycle" depart="178.33" departLane="best" from="14182777#2" to="29188885"/>
    <trip id="bike239" type="bike_bicycle" depart="179.08" departLane="best" from="539437214#2" to="407662691#3"/>
    <trip id="bike240" type="bike_bicycle" depart="179.83" departLane="best" from="-674944149#0" to="-104203768"/>
    <trip id="bike241" type="bike_bicycle" depart="180.58" departLane="best" from="-588961291#4" to="391728400#3"/>
    <trip id="bike242" type="bike_bicycle" depart="181.33" departLane="best" from="531057020#0" to="878400797#2"/>
    <trip id="bike243" type="bike_bicycle" depart="182.08" departLane="best" from="-812418917#2" to="366249713"/>
    <trip id="bike244" type="bike_bicycle" depart="182.83" departLane="best" departSpeed="max" from="123272239" to="19835094"/>
    <trip id="bike245" type="bike_bicycle" depart="183.58" departLane="best" from="-26574087#0" to="-320410535"/>
    <trip id="bike246" type="bike_bicycle" depart="184.33" departLane="best" from="-878125902#0" to="-111027983#0"/>
    <trip id="bike247" type="bike_bicycle" depart="185.08" departLane="best" departSpeed="max" from="-52493011" to="27341266#5"/>
    <trip id="bike249" type="bike_bicycle" depart="186.58" departLane="best" departSpeed="max" from="-9661623#1" to="-170515994#0"/>
    <trip id="bike250" type="bike_bicycle" depart="187.33" departLane="best" from="16239141#3" to="-110846103#2"/>
    <trip id="bike251" type="bike_bicycle" depart="188.08" departLane="best" departSpeed="max" from="-733564024#4" to="15805231#1"/>
    <trip id="bike252" type="bike_bicycle" depart="188.82" departLane="best" from="-1091985879#1" to="23231204#1"/>
    <trip id="bike253" type="bike_bicycle" depart="189.57" departLane="best" from="-16237248#1" to="113746364#2"/>
    <trip id="bike254" type="bike_bicycle" depart="190.32" departLane="best" from="-113755676#0" to="-883131388"/>
    <trip id="bike255" type="bike_bicycle" depart="191.07" departLane="best" departSpeed="max" from="-25946964#2" to="-64612941#5"/>
    <trip id="bike256" type="bike_bicycle" depart="191.82" departLane="best" from="339743353#1" to="-883131388"/>
    <trip id="bike257" type="bike_bicycle" depart="192.57" departLane="best" from="33128145#2" to="531490207#0"/>
    <trip id="bike258" type="bike_bicycle" depart="193.32" departLane="best" from="-32108980#0" to="-133140164#1"/>
    <trip id="bike259" type="bike_bicycle" depart="194.07" departLane="best" from="-108098095#2" to="14354039#0"/>
    <trip id="bike260" type="bike_bicycle" depart="194.82" departLane="best" from="996510987#0" to="-779991991"/>