<?xml version="1.0" encoding="UTF-8"?>

<!-- generated on 2022-10-02 11:38:46 by Eclipse SUMO duarouter Version 1.12.0
<configuration xmlns:xsi="http://www.w3.org/2001/XMLSchema-instance" xsi:noNamespaceSchemaLocation="http://sumo.dlr.de/xsd/duarouterConfiguration.xsd">

    <input>
        <net-file value="C:\Users\radan\Sumo\2022-10-02-11-33-29\osm.net.xml"/>
        <route-files value="C:\Users\radan\Sumo\2022-10-02-11-33-29\osm.truck.trips.xml"/>
    </input>

    <output>
        <output-file value="C:\Users\radan\Sumo\2022-10-02-11-33-29\osm.truck.trips.xml.tmp"/>
        <write-trips value="true"/>
    </output>

    <time>
        <begin value="0"/>
        <end value="3600"/>
    </time>

    <report>
        <no-warnings value="true"/>
        <ignore-errors value="true"/>
        <no-step-log value="true"/>
    </report>

</configuration>
-->

<routes xmlns:xsi="http://www.w3.org/2001/XMLSchema-instance" xsi:noNamespaceSchemaLocation="http://sumo.dlr.de/xsd/routes_file.xsd">
    <vType id="truck_truck" vClass="truck"/>
    <trip id="truck0" type="truck_truck" depart="0.00" departLane="best" from="220875038#2" to="-11988393#2"/>
    <trip id="truck1" type="truck_truck" depart="2.00" departLane="best" from="-392506835#1" to="-345558714#0"/>
    <trip id="truck2" type="truck_truck" depart="4.00" departLane="best" from="332808487#3-AddedOffRampEdge" to="279877425"/>
    <trip id="truck3" type="truck_truck" depart="5.99" departLane="best" from="588658320#0" to="-15805245#2"/>
    <trip id="truck4" type="truck_truck" depart="7.99" departLane="best" from="-986293963#1" to="-124329008#0"/>
    <trip id="truck5" type="truck_truck" depart="9.99" departLane="best" from="-26685907#0" to="156261065#0"/>
    <trip id="truck6" type="truck_truck" depart="11.99" departLane="best" from="-115848631#1" to="-303519497#3"/>
    <trip id="truck7" type="truck_truck" depart="13.99" departLane="best" from="22758878#3" to="172494805#2"/>
    <trip id="truck8" type="truck_truck" depart="15.99" departLane="best" departSpeed="max" from="-26686217#1" to="21629605#7"/>
    <trip id="truck9" type="truck_truck" depart="17.98" departLane="best" from="436163584#1" to="-10710456#4"/>
    <trip id="truck10" type="truck_truck" depart="19.98" departLane="best" from="433545663" to="309596830#1"/>
    <trip id="truck11" type="truck_truck" depart="21.98" departLane="best" departSpeed="max" from="-545030231#1" to="-22758875#3"/>
    <trip id="truck12" type="truck_truck" depart="23.98" departLane="best" from="-15803913#0" to="-16497962#5"/>
    <trip id="truck13" type="truck_truck" depart="25.98" departLane="best" from="4750316#1" to="22372742#0"/>
    <trip id="truck14" type="truck_truck" depart="27.97" departLane="best" from="433552307" to="34398218#3"/>
    <trip id="truck15" type="truck_truck" depart="29.97" departLane="best" from="14613051#3" to="887612167"/>
    <trip id="truck16" type="truck_truck" depart="31.97" departLane="best" from="-755309786#3" to="175150005#0"/>
    <trip id="truck17" type="truck_truck" depart="33.97" departLane="best" from="4648359#6" to="229994720"/>
    <trip id="truck18" type="truck_truck" depart="35.97" departLane="best" from="50105809#0" to="20796783#5"/>
    <trip id="truck19" type="truck_truck" depart="37.97" departLane="best" from="28156676#2" to="-133140148#2"/>
    <trip id="truck20" type="truck_truck" depart="39.96" departLane="best" from="-27993939#1" to="-531057020#1"/>
    <trip id="truck21" type="truck_truck" depart="41.96" departLane="best" from="-144205018#6" to="-394912794#2"/>
    <trip id="truck22" type="truck_truck" depart="43.96" departLane="best" from="-15805656#0" to="-490050365#2"/>
    <trip id="truck23" type="truck_truck" depart="45.96" departLane="best" from="218339204#1" to="-972903404"/>
    <trip id="truck24" type="truck_truck" depart="47.96" departLane="best" from="-691228570#1" to="-320410528#1"/>
    <trip id="truck25" type="truck_truck" depart="49.95" departLane="best" departSpeed="max" from="-34924637#2" to="78871669#0"/>
    <trip id="truck26" type="truck_truck" depart="51.95" departLane="best" from="22758862#1" to="22755983#3"/>
    <trip id="truck27" type="truck_truck" depart="53.95" departLane="best" departSpeed="max" from="-22662931#1" to="343928797#1"/>
    <trip id="truck28" type="truck_truck" depart="55.95" departLane="best" from="-217850404#1" to="1067710446#0"/>
    <trip id="truck29" type="truck_truck" depart="57.95" departLane="best" from="943903134#1" to="255458155"/>
    <trip id="truck30" type="truck_truck" depart="59.95" departLane="best" from="15804380#3" to="284701328#0"/>
    <trip id="truck31" type="truck_truck" depart="61.94" departLane="best" from="4709299#1" to="41385098#0"/>
    <trip id="truck32" type="truck_truck" depart="63.94" departLane="best" from="-28156676#0" to="-12480180"/>
    <trip id="truck33" type="truck_truck" depart="65.94" departLane="best" departSpeed="max" from="-4709077#2" to="-4709061#1"/>
    <trip id="truck34" type="truck_truck" depart="67.94" departLane="best" from="-26126661#2" to="8065598"/>
    <trip id="truck35" type="truck_truck" depart="69.94" departLane="best" from="539293766#0" to="-636308502"/>
    <trip id="truck36" type="truck_truck" depart="71.93" departLane="best" from="229994720" to="1092567397#1"/>
    <trip id="truck37" type="truck_truck" depart="73.93" departLane="best" from="680101474#0" to="137844100#1"/>
    <trip id="truck38" type="truck_truck" depart="75.93" departLane="best" from="-345306208#1" to="-427981605#0"/>
    <trip id="truck39" type="truck_truck" depart="77.93" departLane="best" departSpeed="max" from="15805648" to="-46430951#0"/>
    <trip id="truck40" type="truck_truck" depart="79.93" departLane="best" from="17097976#2" to="61741250#2"/>
    <trip id="truck41" type="truck_truck" depart="81.93" departLane="best" from="-852783301#0" to="-345276761#3"/>
    <trip id="truck42" type="truck_truck" depart="83.92" departLane="best" from="972903400" to="15804033#0"/>
    <trip id="truck43" type="truck_truck" depart="85.92" departLane="best" from="-156261062#0" to="-133144140#1"/>
    <trip id="truck44" type="truck_truck" depart="87.92" departLane="best" from="-16237250#1" to="23625248#0"/>
    <trip id="truck45" type="truck_truck" depart="89.92" departLane="best" from="41385098#0" to="12461074#3"/>
    <trip id="truck46" type="truck_truck" depart="91.92" departLane="best" from="-138111051#3" to="10710851#1"/>
    <trip id="truck47" type="truck_truck" depart="93.91" departLane="best" from="970690063#2" to="16237266#2"/>
    <trip id="truck48" type="truck_truck" depart="95.91" departLane="best" from="88366606#1" to="520230537#0"/>
    <trip id="truck49" type="truck_truck" depart="97.91" departLane="best" from="-108098095#7" to="335380591"/>
    <trip id="truck50" type="truck_truck" depart="99.91" departLane="best" from="25946605#0" to="16782329#2"/>
    <trip id="truck51" type="truck_truck" depart="101.91" departLane="best" from="-34924637#1" to="25660656"/>
    <trip id="truck52" type="truck_truck" depart="103.91" departLane="best" departSpeed="max" from="-16239141#5" to="129043108#4"/>
    <trip id="truck53" type="truck_truck" depart="105.90" departLane="best" from="111504657#4" to="82899235"/>
    <trip id="truck55" type="truck_truck" depart="109.90" departLane="best" from="133140155#1" to="-25946692#0"/>
    <trip id="truck56" type="truck_truck" depart="111.90" departLane="best" from="640915332#1" to="545287631#0"/>
    <trip id="truck57" type="truck_truck" depart="113.90" departLane="best" from="-4452413#5" to="25384159#1"/>
    <trip id="truck58" type="truck_truck" depart="115.89" departLane="best" from="201753145#0" to="-22755983#3"/>
    <trip id="truck59" type="truck_truck" depart="117.89" departLane="best" from="353855191#3" to="169802633#1"/>
    <trip id="truck60" type="truck_truck" depart="119.89" departLane="best" from="39700400#2" to="16239222#0"/>
    <trip id="truck61" type="truck_truck" depart="121.89" departLane="best" from="-1000248544" to="-755309786#1"/>
    <trip id="truck62" type="truck_truck" depart="123.89" departLane="best" from="545030235" to="4709306#1"/>
    <trip id="truck63" type="truck_truck" depart="125.89" departLane="best" from="-4558737#3" to="-14296504#0"/>
    <trip id="truck64" type="truck_truck" depart="127.88" departLane="best" from="545030229#2" to="813562913#0"/>
    <trip id="truck65" type="truck_truck" depart="129.88" departLane="best" from="-142834659" to="394912811"/>
    <trip id="truck66" type="truck_truck" depart="131.88" departLane="best" from="36285970#3" to="-205105083#1"/>
    <trip id="truck67" type="truck_truck" depart="133.88" departLane="best" from="12480515#0" to="173092686"/>
    <trip id="truck68" type="truck_truck" depart="135.88" departLane="best" from="-345306208#2" to="545908791#2"/>
    <trip id="truck69" type="truck_truck" depart="137.87" departLane="best" from="1000248546" to="-32848359#1"/>
    <trip id="truck70" type="truck_truck" depart="139.87" departLane="best" from="149705263#1" to="34398218#5"/>
    <trip id="truck71" type="truck_truck" depart="141.87" departLane="best" departSpeed="max" from="-25776332#1" to="-617212926#0"/>
    <trip id="truck72" type="truck_truck" depart="143.87" departLane="best" from="96882759#1" to="25946610#1"/>
    <trip id="truck73" type="truck_truck" depart="145.87" departLane="best" from="108098095#2" to="15805651#1"/>
    <trip id="truck74" type="truck_truck" depart="147.87" departLane="best" departSpeed="max" from="-17098451#1" to="-349884539"/>
    <trip id="truck75" type="truck_truck" depart="149.86" departLane="best" from="-531490202" to="21629395#7"/>
    <trip id="truck76" type="truck_truck" depart="151.86" departLane="best" departSpeed="max" from="-28221891" to="-345276763#4"/>
    <trip id="truck79" type="truck_truck" depart="157.86" departLane="best" from="493624653" to="-14669016#0"/>
    <trip id="truck80" type="truck_truck" depart="159.85" departLane="best" from="-291623199#2" to="26840597#0"/>
    <trip id="truck81" type="truck_truck" depart="161.85" departLane="best" from="-26500771#2" to="-20797574#0"/>
    <trip id="truck82" type="truck_truck" depart="163.85" departLane="best" departSpeed="max" from="78446228#0" to="202070479#0"/>
    <trip id="truck83" type="truck_truck" depart="165.85" departLane="best" from="12461049#2" to="427981603#4"/>
    <trip id="truck84" type="truck_truck" depart="167.85" departLane="best" from="433791466#0" to="-27806736#5"/>
    <trip id="truck85" type="truck_truck" depart="169.85" departLane="best" from="-15804335#2" to="128607212#3"/>
    <trip id="truck86" type="truck_truck" depart="171.84" departLane="best" from="1005511827#1" to="139239180"/>
    <trip id="truck87" type="truck_truck" depart="173.84" departLane="best" from="314433510#1" to="276362694#5"/>
    <trip id="truck88" type="truck_truck" depart="175.84" departLane="best" from="939806731" to="-16615979"/>
    <trip id="truck89" type="truck_truck" depart="177.84" departLane="best" from="-8614211" to="-817200066#3"/>
    <trip id="truck90" type="truck_truck" depart="179.84" departLane="best" departSpeed="max" from="500534492" to="-4315493#3"/>
    <trip id="truck91" type="truck_truck" depart="181.83" departLane="best" departSpeed="max" from="-23625319#1" to="133101680#3"/>
    <trip id="truck92" type="truck_truck" depart="183.83" departLane="best" from="-986293963#0" to="-490207845#2"/>
    <trip id="truck93" type="truck_truck" depart="185.83" departLane="best" departSpeed="max" from="-32039684" to="740525946#2"/>
    <trip id="truck94" type="truck_truck" depart="187.83" departLane="best" from="10849675" to="52733608#2"/>
    <trip id="truck95" type="truck_truck" depart="189.83" departLane="best" departSpeed="max" from="15678238#0" to="-135738853"/>
    <trip id="truck96" type="truck_truck" depart="191.83" departLane="best" from="987653297" to="475594884#1"/>
    <trip id="truck97" type="truck_truck" depart="193.82" departLane="best" departSpeed="max" from="475917165#0" to="-233739110#1"/>
    <trip id="truck98" type="truck_truck" depart="195.82" departLane="best" from="129091211#0" to="-33764363#2"/>
    <trip id="truck99" type="truck_truck" depart="197.82" departLane="best" from="-8610372#0" to="-143058879#0"/>
    <trip id="truck100" type="truck_truck" depart="199.82" departLane="best" from="-757530285" to="939863385"/>
    <trip id="truck101" type="truck_truck" depart="201.82" departLane="best" from="-345306209#1" to="427981601"/>
    <trip id="truck102" type="truck_truck" depart="203.81" departLane="best" from="113758948#1" to="12477218#3"/>
    <trip id="truck103" type="truck_truck" depart="205.81" departLane="best" from="832272499#1" to="972124383"/>
    <trip id="truck104" type="truck_truck" depart="207.81" departLane="best" from="15804243#2" to="332826606"/>
    <trip id="truck105" type="truck_truck" depart="209.81" departLane="best" departSpeed="max" from="-21493855" to="-545290748#0"/>
    <trip id="truck106" type="truck_truck" depart="211.81" departLane="best" from="878125902#1" to="20797578#0"/>
    <trip id="truck107" type="truck_truck" depart="213.81" departLane="best" from="15430546" to="361830215#2"/>
    <trip id="truck108" type="truck_truck" depart="215.80" departLane="best" departSpeed="max" from="-133144147" to="21617955#1"/>
    <trip id="truck109" type="truck_truck" depart="217.80" departLane="best" from="13355421#0" to="501186735#1"/>
    <trip id="truck110" type="truck_truck" depart="219.80" departLane="best" departSpeed="max" from="-21618150#2" to="8614210#0"/>
    <trip id="truck111" type="truck_truck" depart="221.80" departLane="best" from="-145397815#2" to="-26686177#4"/>
    <trip id="truck112" type="truck_truck" depart="223.80" departLane="best" from="184576670#3" to="27786782#1"/>
    <trip id="truck113" type="truck_truck" depart="225.79" departLane="best" from="-284701341" to="-19836217#2"/>
    <trip id="truck114" type="truck_truck" depart="227.79" departLane="best" from="574385206#3" to="-427981604#0"/>
    <trip id="truck115" type="truck_truck" depart="229.79" departLane="best" from="184154249#3" to="231423469#0"/>
    <trip id="truck116" type="truck_truck" depart="231.79" departLane="best" from="-972124382#1" to="215566868#1"/>
    <trip id="truck117" type="truck_truck" depart="233.79" departLane="best" from="14308409#3" to="78446234"/>
    <trip id="truck118" type="truck_truck" depart="235.79" departLane="best" departSpeed="max" from="-25927689#2" to="332807952"/>
    <trip id="truck119" type="truck_truck" depart="237.78" departLane="best" from="-29188891#2" to="10930393#0"/>
    <trip id="truck120" type="truck_truck" depart="239.78" departLane="best" from="24811436#8" to="-574053721#2"/>
    <trip id="truck121" type="truck_truck" depart="241.78" departLane="best" from="-4709084#2" to="366863489#0"/>
    <trip id="truck122" type="truck_truck" depart="243.78" departLane="best" from="-14354039#2" to="136441172#2"/>
    <trip id="truck123" type="truck_truck" depart="245.78" departLane="best" from="979871686#2" to="972124385#1"/>
    <trip id="truck124" type="truck_truck" depart="247.77" departLane="best" departSpeed="max" from="-14354256#11" to="-334029978#2"/>
    <trip id="truck125" type="truck_truck" depart="249.77" departLane="best" from="-345306209#1" to="77430896#3"/>
    <trip id="truck126" type="truck_truck" depart="251.77" departLane="best" from="-691228569#0" to="-22758890#3"/>
    <trip id="truck127" type="truck_truck" depart="253.77" departLane="best" from="4672499#10" to="312906022"/>
    <trip id="truck128" type="truck_truck" depart="255.77" departLane="best" from="20333606" to="943834218#2"/>
    <trip id="truck129" type="truck_truck" depart="257.77" departLane="best" from="22758900#1" to="-108098095#0"/>
    <trip id="truck130" type="truck_truck" depart="259.76" departLane="best" from="4558712" to="-573966850#0"/>
    <trip id="truck131" type="truck_truck" depart="261.76" departLane="best" from="235927164#7" to="801770893#4"/>
    <trip id="truck132" type="truck_truck" depart="263.76" departLane="best" departSpeed="max" from="-16237228#1" to="179824907"/>
    <trip id="truck134" type="truck_truck" depart="267.76" departLane="best" from="309596830#2" to="-31009483#3"/>
    <trip id="truck135" type="truck_truck" depart="269.75" departLane="best" from="217859793" to="-4648153#1"/>
    <trip id="truck136" type="truck_truck" depart="271.75" departLane="best" from="130071879#2" to="642239584#0"/>
    <trip id="truck137" type="truck_truck" depart="273.75" departLane="best" from="474078644#0" to="-160567766#1"/>
    <trip id="truck138" type="truck_truck" depart="275.75" departLane="best" from="1005511827#1" to="-485079213#0"/>
    <trip id="truck139" type="truck_truck" depart="277.75" departLane="best" from="-102029790#6" to="4079611#2"/>
    <trip id="truck141" type="truck_truck" depart="281.74" departLane="best" from="33767207#1" to="175150004#0"/>
    <trip id="truck142" type="truck_truck" depart="283.74" departLane="best" from="104203751" to="-10848782#4"/>
    <trip id="truck143" type="truck_truck" depart="285.74" departLane="best" from="-14354808#6" to="59244689#4"/>
    <trip id="truck144" type="truck_truck" depart="287.74" departLane="best" from="61225103" to="172969246"/>
    <trip id="truck145" type="truck_truck" depart="289.74" departLane="best" from="4672500#1" to="21493891"/>
    <trip id="truck146" type="truck_truck" depart="291.73" departLane="best" from="-20796769#5" to="-203758843"/>
    <trip id="truck147" type="truck_truck" depart="293.73" departLane="best" from="-4558740#3" to="62144674#1"/>
    <trip id="truck148" type="truck_truck" depart="295.73" departLane="best" departSpeed="max" from="425529592" to="5197819"/>
    <trip id="truck149" type="truck_truck" depart="297.73" departLane="best" departSpeed="max" from="595907716" to="-32063067#1"/>
    <trip id="truck150" type="truck_truck" depart="299.73" departLane="best" departSpeed="max" from="-32039684" to="-170515992"/>
    <trip id="truck152" type="truck_truck" depart="303.72" departLane="best" departSpeed="max" from="-881267972#2" to="23230322#4"/>
    <trip id="truck153" type="truck_truck" depart="305.72" departLane="best" from="-21493703" to="762544135"/>
    <trip id="truck154" type="truck_truck" depart="307.72" departLane="best" from="501157541#0" to="907049199#1"/>
    <trip id="truck155" type="truck_truck" depart="309.72" departLane="best" departSpeed="max" from="-113758952#2" to="345306198#27"/>
    <trip id="truck156" type="truck_truck" depart="311.72" departLane="best" departSpeed="max" from="-513165908#2" to="765976205"/>
    <trip id="truck157" type="truck_truck" depart="313.71" departLane="best" from="427981609#1" to="531490211#0"/>
    <trip id="truck158" type="truck_truck" depart="315.71" departLane="best" from="438307368#2" to="-46982815#2"/>
    <trip id="truck159" type="truck_truck" depart="317.71" departLane="best" from="407662691#5" to="-173068137#4"/>
    <trip id="truck160" type="truck_truck" depart="319.71" departLane="best" from="524046945#1" to="517197493#1"/>
    <trip id="truck161" type="truck_truck" depart="321.71" departLane="best" from="-27341265#1" to="4648153#0"/>
    <trip id="truck162" type="truck_truck" depart="323.71" departLane="best" from="118387925#1" to="-593546522#1"/>
    <trip id="truck163" type="truck_truck" depart="325.70" departLane="best" departSpeed="max" from="425528993#0" to="-36285970#4"/>
    <trip id="truck164" type="truck_truck" depart="327.70" departLane="best" from="-113623051#1" to="-280857479#0"/>
    <trip id="truck165" type="truck_truck" depart="329.70" departLane="best" departSpeed="max" from="-50110079#12" to="532082994"/>
    <trip id="truck166" type="truck_truck" depart="331.70" departLane="best" from="867966911#0" to="-491323356#0"/>
    <trip id="truck167" type="truck_truck" depart="333.70" departLane="best" from="22126059#1" to="111450429#1"/>
    <trip id="truck168" type="truck_truck" depart="335.69" departLane="best" departSpeed="max" from="929580061#0" to="16781884#0"/>
    <trip id="truck169" type="truck_truck" depart="337.69" departLane="best" from="798274850#5" to="-189565639#2"/>
    <trip id="truck170" type="truck_truck" depart="339.69" departLane="best" departSpeed="max" from="88366586" to="-25946610#1"/>
    <trip id="truck171" type="truck_truck" depart="341.69" departLane="best" from="8614212" to="-4648504#0"/>
    <trip id="truck172" type="truck_truck" depart="343.69" departLane="best" from="-16237236#0" to="129043108#2"/>
    <trip id="truck173" type="truck_truck" depart="345.69" departLane="best" from="313917618#1" to="-62183285#1"/>
    <trip id="truck174" type="truck_truck" depart="347.68" departLane="best" from="19836352#2" to="15804289#1"/>
    <trip id="truck175" type="truck_truck" depart="349.68" departLane="best" departSpeed="max" from="-78446245#3" to="20796778#1"/>
    <trip id="truck176" type="truck_truck" depart="351.68" departLane="best" from="-33764363#3" to="31728010#0"/>
    <trip id="truck177" type="truck_truck" depart="353.68" departLane="best" from="-1009976215#1" to="757443937"/>
    <trip id="truck178" type="truck_truck" depart="355.68" departLane="best" from="14669013#2" to="334029973#0"/>
    <trip id="truck179" type="truck_truck" depart="357.67" departLane="best" from="33770303#1" to="273615607#1"/>
    <trip id="truck180" type="truck_truck" depart="359.67" departLane="best" from="-623095584" to="-14615036#2"/>
    <trip id="truck181" type="truck_truck" depart="361.67" departLane="best" from="23625059" to="-78871669#4"/>
    <trip id="truck182" type="truck_truck" depart="363.67" departLane="best" from="-4709061#3" to="500534478#0"/>
    <trip id="truck183" type="truck_truck" depart="365.67" departLane="best" from="31009371#0" to="-574385204#1"/>
    <trip id="truck184" type="truck_truck" depart="367.67" departLane="best" from="-4558750#1" to="118387928"/>
    <trip id="truck185" type="truck_truck" depart="369.66" departLane="best" from="-8614203#3" to="-545273069#2"/>
    <trip id="truck186" type="truck_truck" depart="371.66" departLane="best" from="-173074320" to="124329036#0"/>
    <trip id="truck187" type="truck_truck" depart="373.66" departLane="best" from="8023842#1" to="27993939#3"/>
    <trip id="truck188" type="truck_truck" depart="375.66" departLane="best" from="611066326#1" to="22758895#5"/>
    <trip id="truck189" type="truck_truck" depart="377.66" departLane="best" departSpeed="max" from="-454614790#2" to="173068140#2"/>
    <trip id="truck190" type="truck_truck" depart="379.65" departLane="best" departSpeed="max" from="-1000063460" to="-51528218#0"/>
    <trip id="truck191" type="truck_truck" depart="381.65" departLane="best" from="10475923#0" to="210460492"/>
    <trip id="truck192" type="truck_truck" depart="383.65" departLane="best" from="10849175#1" to="-33764363#2"/>
    <trip id="truck193" type="truck_truck" depart="385.65" departLane="best" from="12461074#3" to="621790532#0"/>
    <trip id="truck194" type="truck_truck" depart="387.65" departLane="best" from="-152348998" to="15805095#2"/>
    <trip id="truck195" type="truck_truck" depart="389.65" departLane="best" from="217850407" to="-8065630#0"/>
    <trip id="truck196" type="truck_truck" depart="391.64" departLane="best" from="4558722#2" to="366863441"/>
    <trip id="truck197" type="truck_truck" depart="393.64" departLane="best" from="249003128#2" to="-349884539"/>
    <trip id="truck198" type="truck_truck" depart="395.64" departLane="best" from="-31009483#2" to="14307217#3"/>
    <trip id="truck199" type="truck_truck" depart="397.64" departLane="best" from="4789855#0" to="-15243303"/>
    <trip id="truck200" type="truck_truck" depart="399.64" departLane="best" from="-9525551#1" to="23625481#0"/>
    <trip id="truck201" type="truck_truck" depart="401.63" departLane="best" from="-24592270#0" to="308352411"/>
    <trip id="truck202" type="truck_truck" depart="403.63" departLane="best" from="23047976#1" to="-1067710446#0"/>
    <trip id="truck203" type="truck_truck" depart="405.63" departLane="best" from="345276762" to="407662691#3"/>
    <trip id="truck204" type="truck_truck" depart="407.63" departLane="best" from="-160574779#3" to="12480597#4"/>
    <trip id="truck205" type="truck_truck" depart="409.63" departLane="best" from="-22758863#0" to="852783307#3"/>
    <trip id="truck206" type="truck_truck" depart="411.63" departLane="best" from="142956144#3" to="-135738849"/>
    <trip id="truck207" type="truck_truck" depart="413.62" departLane="best" from="-32024986" to="500534479#2"/>
    <trip id="truck209" type="truck_truck" depart="417.62" departLane="best" departSpeed="max" from="23957107#0" to="945418667"/>
    <trip id="truck210" type="truck_truck" depart="419.62" departLane="best" from="186259838#0" to="8168863#3"/>
    <trip id="truck211" type="truck_truck" depart="421.62" departLane="best" from="583856161#2" to="22758882#2"/>
    <trip id="truck212" type="truck_truck" depart="423.61" departLane="best" departSpeed="max" from="31009369" to="156260455#1"/>
    <trip id="truck213" type="truck_truck" depart="425.61" departLane="best" departSpeed="max" from="4648374" to="173068140#2"/>
    <trip id="truck214" type="truck_truck" depart="427.61" departLane="best" from="593758916#3" to="349884541#11"/>
    <trip id="truck215" type="truck_truck" depart="429.61" departLane="best" from="12479622#1" to="-4558734#2"/>
    <trip id="truck216" type="truck_truck" depart="431.61" departLane="best" from="-314433510#1" to="253623705"/>
    <trip id="truck217" type="truck_truck" depart="433.61" departLane="best" from="36285970#3" to="158525479#8"/>
    <trip id="truck218" type="truck_truck" depart="435.60" departLane="best" from="21629395#1" to="-4750316#2"/>
    <trip id="truck219" type="truck_truck" depart="437.60" departLane="best" from="-143939767#1" to="-513240512#5"/>
    <trip id="truck220" type="truck_truck" depart="439.60" departLane="best" from="-365267526#9" to="-713301819#2"/>
    <trip id="truck221" type="truck_truck" depart="441.60" departLane="best" departSpeed="max" from="-28445330#2" to="294301215#1"/>
    <trip id="truck222" type="truck_truck" depart="443.60" departLane="best" from="28446659#2" to="-14354808#7"/>
    <trip id="truck223" type="truck_truck" depart="445.59" departLane="best" from="-88366606#0" to="17098453#3"/>
    <trip id="truck224" type="truck_truck" depart="447.59" departLane="best" departSpeed="max" from="-965328622" to="-313917617"/>
    <trip id="truck225" type="truck_truck" depart="449.59" departLane="best" from="-972903396#1" to="640915334"/>
    <trip id="truck226" type="truck_truck" depart="451.59" departLane="best" from="170851986#4" to="303560036#2"/>
    <trip id="truck227" type="truck_truck" depart="453.59" departLane="best" from="4882948" to="403462365"/>
    <trip id="truck228" type="truck_truck" depart="455.59" departLane="best" from="-762544134#0" to="-1067710448#2"/>
    <trip id="truck229" type="truck_truck" depart="457.58" departLane="best" departSpeed="max" from="-59244349#5" to="366863579#0"/>
    <trip id="truck230" type="truck_truck" depart="459.58" departLane="best" from="4820202" to="828551154"/>
    <trip id="truck231" type="truck_truck" depart="461.58" departLane="best" from="-970690063#2" to="35458678#2"/>
    <trip id="truck232" type="truck_truck" depart="463.58" departLane="best" from="15576817#5" to="223098437#0"/>
    <trip id="truck233" type="truck_truck" depart="465.58" departLane="best" departSpeed="max" from="-26686217#1" to="-345276761#4"/>
    <trip id="truck234" type="truck_truck" depart="467.57" departLane="best" from="10710870#0" to="-12353088"/>
    <trip id="truck235" type="truck_truck" depart="469.57" departLane="best" from="-520230536" to="28156676#3"/>
    <trip id="truck236" type="truck_truck" depart="471.57" departLane="best" from="-870680825#3" to="-23231215#3"/>
    <trip id="truck237" type="truck_truck" depart="473.57" departLane="best" from="12247244#3" to="-203758843"/>
    <trip id="truck238" type="truck_truck" depart="475.57" departLane="best" departSpeed="max" from="21494476#0" to="-12247247#0"/>
    <trip id="truck239" type="truck_truck" depart="477.57" departLane="best" from="-8161497#1" to="19836217#1"/>
    <trip id="truck240" type="truck_truck" depart="479.56" departLane="best" from="-118387907#2" to="25776325#1"/>
    <trip id="truck241" type="truck_truck" depart="481.56" departLane="best" from="-19615400#0" to="138415913#2"/>
    <trip id="truck242" type="truck_truck" depart="483.56" departLane="best" from="-131769864#1" to="1065813306"/>
    <trip id="truck243" type="truck_truck" depart="485.56" departLane="best" from="-261369536#0" to="-77029166#0"/>
    <trip id="truck244" type="truck_truck" depart="487.56" departLane="best" from="349884541#8" to="1065813306"/>
    <trip id="truck245" type="truck_truck" depart="489.55" departLane="best" from="345306196#4" to="4728446#0"/>
    <trip id="truck246" type="truck_truck" depart="491.55" departLane="best" from="-32848359#2" to="-15804025#1"/>
    <trip id="truck247" type="truck_truck" depart="493.55" departLane="best" from="-10930507" to="169802633#1"/>
    <trip id="truck248" type="truck_truck" depart="495.55" departLane="best" from="22758880#0" to="42720472"/>
    <trip id="truck249" type="truck_truck" depart="497.55" departLane="best" from="22758888#1" to="366863615"/>
    <trip id="truck250" type="truck_truck" depart="499.55" departLane="best" from="8151685#0" to="-307732080"/>
    <trip id="truck251" type="truck_truck" depart="501.54" departLane="best" from="-110329506#4" to="-22755898#3"/>
    <trip id="truck252" type="truck_truck" depart="503.54" departLane="best" from="-173068141#1" to="27341264#2"/>
    <trip id="truck253" type="truck_truck" depart="505.54" departLane="best" from="15805668#6" to="-34398218#4"/>
    <trip id="truck254" type="truck_truck" depart="507.54" departLane="best" departSpeed="max" from="27786802" to="4048669#9"/>