<?xml version="1.0" encoding="UTF-8"?>

<!-- generated on 2022-10-02 11:39:37 by Eclipse SUMO duarouter Version 1.12.0
<configuration xmlns:xsi="http://www.w3.org/2001/XMLSchema-instance" xsi:noNamespaceSchemaLocation="http://sumo.dlr.de/xsd/duarouterConfiguration.xsd">

    <input>
        <net-file value="C:\Users\radan\Sumo\2022-10-02-11-33-29\osm.net.xml"/>
        <route-files value="C:\Users\radan\Sumo\2022-10-02-11-33-29\osm.bus.trips.xml"/>
    </input>

    <output>
        <output-file value="C:\Users\radan\Sumo\2022-10-02-11-33-29\osm.bus.trips.xml.tmp"/>
        <write-trips value="true"/>
    </output>

    <time>
        <begin value="0"/>
        <end value="3600"/>
    </time>

    <report>
        <no-warnings value="true"/>
        <ignore-errors value="true"/>
        <no-step-log value="true"/>
    </report>

</configuration>
-->

<routes xmlns:xsi="http://www.w3.org/2001/XMLSchema-instance" xsi:noNamespaceSchemaLocation="http://sumo.dlr.de/xsd/routes_file.xsd">
    <vType id="bus_bus" vClass="bus"/>
    <trip id="bus0" type="bus_bus" depart="0.00" departLane="best" from="173131149#2" to="-124329004#3"/>
    <trip id="bus1" type="bus_bus" depart="4.76" departLane="best" departSpeed="max" from="-28221891" to="-412860100#1"/>
    <trip id="bus2" type="bus_bus" depart="9.53" departLane="best" departSpeed="max" from="274787503#0" to="28221891"/>
    <trip id="bus3" type="bus_bus" depart="14.29" departLane="best" departSpeed="max" from="544212761#0" to="-170515993"/>
    <trip id="bus4" type="bus_bus" depart="19.05" departLane="best" departSpeed="max" from="-617212924#5" to="-128553068#1"/>
    <trip id="bus5" type="bus_bus" depart="23.81" departLane="best" departSpeed="max" from="-240495014#1" to="16237266#2"/>
    <trip id="bus6" type="bus_bus" depart="28.58" departLane="best" departSpeed="max" from="-113623051#5" to="-32787930#1"/>
    <trip id="bus7" type="bus_bus" depart="33.34" departLane="best" from="19835927" to="19836291#1"/>
    <trip id="bus8" type="bus_bus" depart="38.10" departLane="best" departSpeed="max" from="-24897809#1" to="22663119#0"/>
    <trip id="bus10" type="bus_bus" depart="47.63" departLane="best" from="394912797#0" to="294301215#1"/>
    <trip id="bus11" type="bus_bus" depart="52.39" departLane="best" departSpeed="max" from="-416929127" to="-242345343"/>
    <trip id="bus12" type="bus_bus" depart="57.15" departLane="best" from="819110607#0" to="-885719765#1"/>
    <trip id="bus13" type="bus_bus" depart="61.92" departLane="best" departSpeed="max" from="-15230228#3" to="-186574307#0"/>
    <trip id="bus14" type="bus_bus" depart="66.68" departLane="best" from="4648147#1" to="23231241"/>
    <trip id="bus15" type="bus_bus" depart="71.44" departLane="best" from="39655986#4" to="34117168"/>
    <trip id="bus17" type="bus_bus" depart="80.97" departLane="best" from="4315490#4" to="248991194#1"/>
    <trip id="bus18" type="bus_bus" depart="85.73" departLane="best" from="4709306#1" to="217850417#0"/>
    <trip id="bus21" type="bus_bus" depart="100.02" departLane="best" from="-143383348#3" to="-4341458#5"/>
    <trip id="bus22" type="bus_bus" depart="104.78" departLane="best" from="-15678196" to="-545290748#0"/>
    <trip id="bus23" type="bus_bus" depart="109.55" departLane="best" departSpeed="max" from="173026671#0" to="104412611"/>
    <trip id="bus24" type="bus_bus" depart="114.31" departLane="best" from="-464443469#1" to="-362847468#0"/>
    <trip id="bus25" type="bus_bus" depart="119.07" departLane="best" departSpeed="max" from="-26686239" to="798274850#3"/>
    <trip id="bus26" type="bus_bus" depart="123.84" departLane="best" departSpeed="max" from="19834848#0" to="23625310#2"/>
    <trip id="bus27" type="bus_bus" depart="128.60" departLane="best" departSpeed="max" from="-21475723#3" to="34117168"/>
    <trip id="bus28" type="bus_bus" depart="133.36" departLane="best" from="-202070479#0" to="10849888"/>
    <trip id="bus29" type="bus_bus" depart="138.12" departLane="best" from="939807395#0" to="25946610#2"/>
    <trip id="bus30" type="bus_bus" depart="142.89" departLane="best" from="133090112" to="28446276"/>
    <trip id="bus31" type="bus_bus" depart="147.65" departLane="best" departSpeed="max" from="4558727#0" to="42103748#2"/>
    <trip id="bus33" type="bus_bus" depart="157.18" departLane="best" departSpeed="max" from="-344941418#1" to="-51528218#0"/>
    <trip id="bus34" type="bus_bus" depart="161.94" departLane="best" departSpeed="max" from="-23625037#1" to="8103339#4"/>
    <trip id="bus35" type="bus_bus" depart="166.70" departLane="best" from="498862793#0" to="-8065617"/>
    <trip id="bus36" type="bus_bus" depart="171.46" departLane="best" from="20333417#2" to="11987906#4"/>
    <trip id="bus37" type="bus_bus" depart="176.23" departLane="best" departSpeed="max" from="617212924#0" to="14354256#11"/>
    <trip id="bus38" type="bus_bus" depart="180.99" departLane="best" departSpeed="max" from="-26686236" to="-4648374"/>
    <trip id="bus39" type="bus_bus" depart="185.75" departLane="best" departSpeed="max" from="134112437#0" to="-500534492"/>
    <trip id="bus40" type="bus_bus" depart="190.52" departLane="best" from="143588183#0" to="649771081"/>
    <trip id="bus41" type="bus_bus" depart="195.28" departLane="best" from="-545030231#0" to="-4018014#0"/>
    <trip id="bus42" type="bus_bus" depart="200.04" departLane="best" from="972124382#0" to="16614512#5"/>
    <trip id="bus43" type="bus_bus" depart="204.80" departLane="best" departSpeed="max" from="-14615570#1" to="-142834661"/>
    <trip id="bus44" type="bus_bus" depart="209.57" departLane="best" departSpeed="max" from="-158525479#8" to="25776332#1"/>
    <trip id="bus45" type="bus_bus" depart="214.33" departLane="best" from="35458156#4" to="129501930"/>
    <trip id="bus46" type="bus_bus" depart="219.09" departLane="best" departSpeed="max" from="-133144147" to="1086426251#2"/>
    <trip id="bus47" type="bus_bus" depart="223.86" departLane="best" from="867966911#0" to="545271261"/>
    <trip id="bus48" type="bus_bus" depart="228.62" departLane="best" departSpeed="max" from="-104412611" to="332808487#0"/>
    <trip id="bus49" type="bus_bus" depart="233.38" departLane="best" departSpeed="max" from="217859854#0" to="186798265#2"/>
    <trip id="bus50" type="bus_bus" depart="238.14" departLane="best" departSpeed="max" from="-26686239" to="25946964#2"/>
    <trip id="bus51" type="bus_bus" depart="242.91" departLane="best" departSpeed="max" from="-159310788#1" to="133267331#1"/>
    <trip id="bus52" type="bus_bus" depart="247.67" departLane="best" departSpeed="max" from="-76864481#2" to="852783307#3"/>
    <trip id="bus53" type="bus_bus" depart="252.43" departLane="best" from="4930000" to="-50106174#4"/>
    <trip id="bus54" type="bus_bus" depart="257.20" departLane="best" from="1005511827#0" to="-27994392#0"/>
    <trip id="bus55" type="bus_bus" depart="261.96" departLane="best" from="610881092#4" to="574385207#2"/>
    <trip id="bus56" type="bus_bus" depart="266.72" departLane="best" from="-31363718#3" to="25946602#5"/>
    <trip id="bus57" type="bus_bus" depart="271.48" departLane="best" departSpeed="max" from="15805648" to="-23625341"/>
    <trip id="bus58" type="bus_bus" depart="276.25" departLane="best" departSpeed="max" from="31363696" to="194011509#7"/>
    <trip id="bus61" type="bus_bus" depart="290.54" departLane="best" departSpeed="max" from="-10849888" to="77029158#3"/>
    <trip id="bus62" type="bus_bus" depart="295.30" departLane="best" departSpeed="max" from="50108253" to="4778267#0"/>
    <trip id="bus63" type="bus_bus" depart="300.06" departLane="best" departSpeed="max" from="-32848364" to="-14615036#3"/>
    <trip id="bus64" type="bus_bus" depart="304.82" departLane="best" departSpeed="max" from="500534492" to="8161496#7"/>
    <trip id="bus65" type="bus_bus" depart="309.59" departLane="best" from="-143952422#9" to="15803869#4"/>
    <trip id="bus66" type="bus_bus" depart="314.35" departLane="best" departSpeed="max" from="-137844100#1" to="39633802#1"/>
    <trip id="bus67" type="bus_bus" depart="319.11" departLane="best" departSpeed="max" from="31363713" to="-21630510#0"/>
    <trip id="bus69" type="bus_bus" depart="328.64" departLane="best" departSpeed="max" from="-26686236" to="59244349#5"/>
    <trip id="bus70" type="bus_bus" depart="333.40" departLane="best" departSpeed="max" from="-61741250#2" to="-36331660#0"/>
    <trip id="bus71" type="bus_bus" depart="338.17" departLane="best" from="12461049#1" to="34117168"/>
    <trip id="bus72" type="bus_bus" depart="342.93" departLane="best" departSpeed="max" from="-22758897#1" to="-798274850#3"/>
    <trip id="bus73" type="bus_bus" depart="347.69" departLane="best" from="957187889" to="261948078#2"/>
    <trip id="bus74" type="bus_bus" depart="352.45" departLane="best" departSpeed="max" from="-713301807" to="169847024"/>
    <trip id="bus75" type="bus_bus" depart="357.22" departLane="best" departSpeed="max" from="-16281750" to="-4212122#1"/>
    <trip id="bus76" type="bus_bus" depart="361.98" departLane="best" departSpeed="max" from="-412860100#2" to="22662931#1"/>
    <trip id="bus78" type="bus_bus" depart="371.51" departLane="best" departSpeed="max" from="-137893400#7" to="25828934"/>
    <trip id="bus80" type="bus_bus" depart="381.03" departLane="best" departSpeed="max" from="4709293#0" to="-15804410"/>
    <trip id="bus81" type="bus_bus" depart="385.79" departLane="best" departSpeed="max" from="-25927689#2" to="27431546#1"/>
    <trip id="bus83" type="bus_bus" depart="395.32" departLane="best" from="757446762" to="21629841#3"/>
    <trip id="bus84" type="bus_bus" depart="400.08" departLane="best" departSpeed="max" from="-852783301#2" to="4315492#2"/>
    <trip id="bus85" type="bus_bus" depart="404.85" departLane="best" from="39700403#1" to="-31363696"/>
    <trip id="bus86" type="bus_bus" depart="409.61" departLane="best" departSpeed="max" from="-156260171#1" to="133135211#0"/>
    <trip id="bus87" type="bus_bus" depart="414.37" departLane="best" departSpeed="max" from="-61741250#2" to="143952440"/>
    <trip id="bus89" type="bus_bus" depart="423.90" departLane="best" from="929570682" to="-189565639#0"/>
    <trip id="bus90" type="bus_bus" depart="428.66" departLane="best" from="-545273063#0" to="-896009877"/>
    <trip id="bus91" type="bus_bus" depart="433.42" departLane="best" from="4709306#1" to="-4648525#5"/>
    <trip id="bus92" type="bus_bus" depart="438.19" departLane="best" from="-22123385" to="13889197#1"/>
    <trip id="bus93" type="bus_bus" depart="442.95" departLane="best" departSpeed="max" from="-617212924#5" to="-550881714#5"/>
    <trip id="bus94" type="bus_bus" depart="447.71" departLane="best" departSpeed="max" from="-261369536#2" to="757446764#0"/>
    <trip id="bus95" type="bus_bus" depart="452.47" departLane="best" from="129092200#0" to="-143383348#0"/>
    <trip id="bus96" type="bus_bus" depart="457.24" departLane="best" from="985117248" to="482716954#0"/>
    <trip id="bus98" type="bus_bus" depart="466.76" departLane="best" from="4648358#4" to="-25946692#0"/>
    <trip id="bus99" type="bus_bus" depart="471.53" departLane="best" departSpeed="max" from="-893785719" to="-377769070#0"/>
    <trip id="bus100" type="bus_bus" depart="476.29" departLane="best" from="-545030236#2" to="-149705263#0"/>
    <trip id="bus102" type="bus_bus" depart="485.81" departLane="best" departSpeed="max" from="-26686236" to="4315488#1"/>
    <trip id="bus103" type="bus_bus" depart="490.58" departLane="best" departSpeed="max" from="-77029158#3" to="130071879#4"/>
    <trip id="bus104" type="bus_bus" depart="495.34" departLane="best" from="819110609#1" to="972124383"/>
    <trip id="bus105" type="bus_bus" depart="500.10" departLane="best" from="133083921#6" to="32848364"/>
    <trip id="bus108" type="bus_bus" depart="514.39" departLane="best" from="12480597#1" to="364711091"/>
    <trip id="bus109" type="bus_bus" depart="519.15" departLane="best" departSpeed="max" from="-131655053" to="22089331#2"/>
    <trip id="bus110" type="bus_bus" depart="523.92" departLane="best" departSpeed="max" from="102029790#0" to="517197493#0"/>
    <trip id="bus111" type="bus_bus" depart="528.68" departLane="best" departSpeed="max" from="-19845792#7" to="86645405#0"/>
    <trip id="bus112" type="bus_bus" depart="533.44" departLane="best" from="-14354256#1" to="-309596830#3"/>
    <trip id="bus113" type="bus_bus" depart="538.21" departLane="best" from="15430913#7" to="27993939#1"/>
    <trip id="bus114" type="bus_bus" depart="542.97" departLane="best" departSpeed="max" from="-25829087" to="-210554172#4"/>
    <trip id="bus116" type="bus_bus" depart="552.50" departLane="best" from="15430911#5" to="248991197#1"/>
    <trip id="bus117" type="bus_bus" depart="557.26" departLane="best" departSpeed="max" from="-60577099#2" to="220134427#1"/>
    <trip id="bus118" type="bus_bus" depart="562.02" departLane="best" from="110515738#1" to="78446245#3"/>
    <trip id="bus119" type="bus_bus" depart="566.78" departLane="best" from="-23230125" to="32680302#0"/>
    <trip id="bus120" type="bus_bus" depart="571.55" departLane="best" departSpeed="max" from="-25927690" to="11987906#4"/>
    <trip id="bus121" type="bus_bus" depart="576.31" departLane="best" departSpeed="max" from="21629395#0" to="-740525943#0"/>
    <trip id="bus122" type="bus_bus" depart="581.07" departLane="best" departSpeed="max" from="-344941418#1" to="366863598"/>
    <trip id="bus123" type="bus_bus" depart="585.84" departLane="best" from="-138415900" to="14354256#11"/>
    <trip id="bus124" type="bus_bus" depart="590.60" departLane="best" from="972903401" to="972124383"/>
    <trip id="bus125" type="bus_bus" depart="595.36" departLane="best" departSpeed="max" from="-13867649#9" to="-375435009#0"/>
    <trip id="bus126" type="bus_bus" depart="600.12" departLane="best" departSpeed="max" from="-26686236" to="78446243"/>
    <trip id="bus127" type="bus_bus" depart="604.89" departLane="best" from="50110382#4" to="595907713"/>
    <trip id="bus128" type="bus_bus" depart="609.65" departLane="best" from="-4558745#7" to="-24592270#0"/>
    <trip id="bus129" type="bus_bus" depart="614.41" departLane="best" departSpeed="max" from="438207656" to="31009371#1"/>
    <trip id="bus131" type="bus_bus" depart="623.94" departLane="best" departSpeed="max" from="201753146#0" to="-10710851#0"/>
    <trip id="bus132" type="bus_bus" depart="628.70" departLane="best" from="4079619#4" to="-718298941#2"/>
    <trip id="bus133" type="bus_bus" depart="633.46" departLane="best" departSpeed="max" from="20797574#0" to="8027139#0"/>
    <trip id="bus135" type="bus_bus" depart="642.99" departLane="best" departSpeed="max" from="-15805231#1" to="201753145#1"/>
    <trip id="bus136" type="bus_bus" depart="647.75" departLane="best" departSpeed="max" from="-27806735#2" to="23233976#2"/>
    <trip id="bus137" type="bus_bus" depart="652.52" departLane="best" from="253623706" to="-34398220#1"/>
    <trip id="bus138" type="bus_bus" depart="657.28" departLane="best" from="172494804#2" to="-50108253"/>
    <trip id="bus140" type="bus_bus" depart="666.80" departLane="best" from="456841652#3" to="-173026672#1"/>
    <trip id="bus141" type="bus_bus" depart="671.57" departLane="best" departSpeed="max" from="-61741250#2" to="-545030237#0"/>
    <trip id="bus142" type="bus_bus" depart="676.33" departLane="best" departSpeed="max" from="-102029787" to="4086188#1"/>
    <trip id="bus143" type="bus_bus" depart="681.09" departLane="best" departSpeed="max" from="173029848" to="-500534492"/>
    <trip id="bus145" type="bus_bus" depart="690.62" departLane="best" from="-632927141" to="-10849099#0"/>
    <trip id="bus147" type="bus_bus" depart="700.14" departLane="best" departSpeed="max" from="438307368#0" to="218339223#2"/>
    <trip id="bus148" type="bus_bus" depart="704.91" departLane="best" departSpeed="max" from="-186798265#2" to="-21630463#0"/>
    <trip id="bus149" type="bus_bus" depart="709.67" departLane="best" from="-332829373#1" to="651548892"/>
    <trip id="bus150" type="bus_bus" depart="714.43" departLane="best" departSpeed="max" from="36331660#0" to="545271261"/>
    <trip id="bus151" type="bus_bus" depart="719.20" departLane="best" from="550889287#1" to="-362847468#4"/>
    <trip id="bus152" type="bus_bus" depart="723.96" departLane="best" from="-261369535#0" to="-19835782#0"/>
    <trip id="bus153" type="bus_bus" depart="728.72" departLane="best" from="338492201#1" to="60577099#2"/>
    <trip id="bus154" type="bus_bus" depart="733.48" departLane="best" departSpeed="max" from="-564143312#1" to="253620756"/>
    <trip id="bus155" type="bus_bus" depart="738.25" departLane="best" from="-19836111#4" to="77029158#3"/>
    <trip id="bus156" type="bus_bus" depart="743.01" departLane="best" departSpeed="max" from="4750316#0" to="929590376"/>
    <trip id="bus157" type="bus_bus" depart="747.77" departLane="best" departSpeed="max" from="4018014#0" to="598540912#1"/>
    <trip id="bus158" type="bus_bus" depart="752.54" departLane="best" from="-111450429#1" to="345306198#10"/>
    <trip id="bus159" type="bus_bus" depart="757.30" departLane="best" from="-40126586#0" to="77430896#3"/>
    <trip id="bus160" type="bus_bus" depart="762.06" departLane="best" from="372155611#1" to="545908794#1"/>
    <trip id="bus161" type="bus_bus" depart="766.83" departLane="best" departSpeed="max" from="4018014#0" to="-513240512#1"/>
    <trip id="bus162" type="bus_bus" depart="771.59" departLane="best" from="345306205#6" to="-20333536#0"/>
    <trip id="bus163" type="bus_bus" depart="776.35" departLane="best" from="482714598" to="545030231#1"/>
    <trip id="bus164" type="bus_bus" depart="781.11" departLane="best" from="-248991197#0" to="4648525#1"/>
    <trip id="bus165" type="bus_bus" depart="785.88" departLane="best" departSpeed="max" from="-78446245#3" to="-762541624#2"/>
    <trip id="bus166" type="bus_bus" depart="790.64" departLane="best" departSpeed="max" from="36331660#0" to="-42756558"/>
    <trip id="bus167" type="bus_bus" depart="795.40" departLane="best" departSpeed="max" from="-389200893" to="546297208#2"/>
    <trip id="bus168" type="bus_bus" depart="800.17" departLane="best" from="8614219" to="-564143315#0"/>
    <trip id="bus170" type="bus_bus" depart="809.69" departLane="best" from="902624882#1" to="186574307#8"/>
    <trip id="bus171" type="bus_bus" depart="814.45" departLane="best" from="77430892" to="-20796771#6"/>
    <trip id="bus173" type="bus_bus" depart="823.98" departLane="best" from="8430738" to="-50110079#6"/>
    <trip id="bus174" type="bus_bus" depart="828.74" departLane="best" from="-15805668#4" to="133267331#1"/>
    <trip id="bus175" type="bus_bus" depart="833.51" departLane="best" from="261600163" to="-8065593#4"/>
    <trip id="bus176" type="bus_bus" depart="838.27" departLane="best" from="15804392#1" to="16615979"/>
    <trip id="bus177" type="bus_bus" depart="843.03" departLane="best" from="-50106174#5" to="217632446#1"/>
    <trip id="bus178" type="bus_bus" depart="847.79" departLane="best" from="-265278221#3" to="31363724#2"/>
    <trip id="bus179" type="bus_bus" depart="852.56" departLane="best" from="-1005511827#0" to="762542608#1"/>
    <trip id="bus180" type="bus_bus" depart="857.32" departLane="best" from="124329010#0" to="32848364"/>
    <trip id="bus181" type="bus_bus" depart="862.08" departLane="best" from="278474625" to="276362694#1"/>
    <trip id="bus182" type="bus_bus" depart="866.85" departLane="best" departSpeed="max" from="-4558710#4" to="-15804380#2"/>
    <trip id="bus183" type="bus_bus" depart="871.61" departLane="best" from="-34148247" to="503831062#0"/>
    <trip id="bus184" type="bus_bus" depart="876.37" departLane="best" departSpeed="max" from="25660525#0" to="-740525943#0"/>
    <trip id="bus185" type="bus_bus" depart="881.13" departLane="best" from="-33764363#4" to="12480515#1"/>
    <trip id="bus186" type="bus_bus" depart="885.90" departLane="best" departSpeed="max" from="-545271261" to="-681854735#0"/>
    <trip id="bus187" type="bus_bus" depart="890.66" departLane="best" from="-16782329#2" to="129092200#1"/>
    <trip id="bus188" type="bus_bus" depart="895.42" departLane="best" departSpeed="max" from="78446228#0" to="28221891"/>
    <trip id="bus189" type="bus_bus" depart="900.19" departLane="best" from="587455512" to="240495014#1"/>
    <trip id="bus190" type="bus_bus" depart="904.95" departLane="best" from="-315941941" to="19848440#1"/>
    <trip id="bus191" type="bus_bus" depart="909.71" departLane="best" departSpeed="max" from="-1000063460" to="-595907706#0"/>
    <trip id="bus192" type="bus_bus" depart="914.47" departLane="best" departSpeed="max" from="-649771081" to="217859853#3"/>
    <trip id="bus193" type="bus_bus" depart="919.24" departLane="best" from="202252905#0" to="143952408#4"/>
    <trip id="bus194" type="bus_bus" depart="924.00" departLane="best" from="-713301820#0" to="-377769070#0"/>
    <trip id="bus195" type="bus_bus" depart="928.76" departLane="best" departSpeed="max" from="-852783307#3" to="680101475"/>
    <trip id="bus196" type="bus_bus" depart="933.53" departLane="best" departSpeed="max" from="36331660#0" to="-26621812"/>
    <trip id="bus197" type="bus_bus" depart="938.29" departLane="best" from="-143939766#1" to="169802633#1"/>
    <trip id="bus198" type="bus_bus" depart="943.05" departLane="best" departSpeed="max" from="17098453#0" to="-88366586"/>
    <trip id="bus199" type="bus_bus" depart="947.81" departLane="best" from="21629605#1" to="-4212122#0"/>
    <trip id="bus200" type="bus_bus" depart="952.58" departLane="best" from="-22758885#2" to="-12350490#1"/>
    <trip id="bus201" type="bus_bus" depart="957.34" departLane="best" from="-25958151#1" to="15230228#3"/>
    <trip id="bus202" type="bus_bus" depart="962.10" departLane="best" departSpeed="max" from="4648374" to="-15805648"/>
    <trip id="bus203" type="bus_bus" depart="966.87" departLane="best" from="-593508727#1" to="25776335#1"/>
    <trip id="bus204" type="bus_bus" depart="971.63" departLane="best" departSpeed="max" from="-22663119#2" to="29188891#5"/>
    <trip id="bus205" type="bus_bus" depart="976.39" departLane="best" departSpeed="max" from="-96882759#2" to="-4558745#6"/>
    <trip id="bus206" type="bus_bus" depart="981.16" departLane="best" departSpeed="max" from="20333536#0" to="-1051499131"/>
    <trip id="bus207" type="bus_bus" depart="985.92" departLane="best" departSpeed="max" from="-15805231#1" to="131655053"/>
    <trip id="bus208" type="bus_bus" depart="990.68" departLane="best" departSpeed="max" from="-21618150#2" to="8614217#1"/>
    <trip id="bus210" type="bus_bus" depart="1000.21" departLane="best" from="-26126661#0" to="513165908#1"/>
    <trip id="bus211" type="bus_bus" depart="1004.97" departLane="best" from="-78446228#8" to="454614790#2"/>
    <trip id="bus213" type="bus_bus" depart="1014.50" departLane="best" departSpeed="max" from="15432155" to="82899102#2"/>
    <trip id="bus214" type="bus_bus" depart="1019.26" departLane="best" departSpeed="max" from="544212761#0" to="23625598#1"/>
    <trip id="bus215" type="bus_bus" depart="1024.02" departLane="best" from="25660181#1" to="16237263"/>
    <trip id="bus216" type="bus_bus" depart="1028.78" departLane="best" from="433545648" to="19848440#1"/>
    <trip id="bus217" type="bus_bus" depart="1033.55" departLane="best" from="545908782#1" to="349884542#0"/>
    <trip id="bus218" type="bus_bus" depart="1038.31" departLane="best" departSpeed="max" from="-8611066" to="-490050365#3"/>
    <trip id="bus219" type="bus_bus" depart="1043.07" departLane="best" departSpeed="max" from="-26083775#1" to="25946523"/>
    <trip id="bus221" type="bus_bus" depart="1052.60" departLane="best" departSpeed="max" from="170515992" to="-545030232"/>
    <trip id="bus222" type="bus_bus" depart="1057.36" departLane="best" from="-142820672#0" to="-595907706#0"/>
    <trip id="bus223" type="bus_bus" depart="1062.12" departLane="best" departSpeed="max" from="-27806735#2" to="-817200066#0"/>
    <trip id="bus224" type="bus_bus" depart="1066.89" departLane="best" departSpeed="max" from="124728647#0" to="-22738778#6"/>
    <trip id="bus225" type="bus_bus" depart="1071.65" departLane="best" departSpeed="max" from="-25776332#1" to="29188880#6"/>
    <trip id="bus226" type="bus_bus" depart="1076.41" departLane="best" from="23625143" to="-15581309#1"/>
    <trip id="bus227" type="bus_bus" depart="1081.18" departLane="best" departSpeed="max" from="-564143315#2" to="19835628#1"/>
    <trip id="bus228" type="bus_bus" depart="1085.94" departLane="best" from="-593758914#0" to="-345710026"/>
    <trip id="bus229" type="bus_bus" depart="1090.70" departLane="best" departSpeed="max" from="-60577099#2" to="691166213"/>
    <trip id="bus230" type="bus_bus" depart="1095.46" departLane="best" from="143563982#2" to="29188891#0"/>
    <trip id="bus231" type="bus_bus" depart="1100.23" departLane="best" from="4709072#0" to="4048674#1"/>
    <trip id="bus232" type="bus_bus" depart="1104.99" departLane="best" departSpeed="max" from="-4778267#2" to="-1051499131"/>
    <trip id="bus234" type="bus_bus" depart="1114.52" departLane="best" from="4648546#5" to="852783307#2"/>
    <trip id="bus235" type="bus_bus" depart="1119.28" departLane="best" departSpeed="max" from="-60577099#2" to="36285970#3"/>
    <trip id="bus236" type="bus_bus" depart="1124.04" departLane="best" departSpeed="max" from="128722529#0" to="23231204#3"/>
    <trip id="bus237" type="bus_bus" depart="1128.80" departLane="best" departSpeed="max" from="-24897809#1" to="-4018014#0"/>
    <trip id="bus239" type="bus_bus" depart="1138.33" departLane="best" from="-4079612#1" to="28445295#2"/>
    <trip id="bus240" type="bus_bus" depart="1143.09" departLane="best" from="-550889287#2" to="-25946605#4"/>
    <trip id="bus241" type="bus_bus" depart="1147.86" departLane="best" from="-8161496#0" to="-21630463#0"/>
    <trip id="bus242" type="bus_bus" depart="1152.62" departLane="best" departSpeed="max" from="16781611#0" to="-124728647#0"/>
    <trip id="bus243" type="bus_bus" depart="1157.38" departLane="best" departSpeed="max" from="-513165932" to="21493891"/>
    <trip id="bus244" type="bus_bus" depart="1162.14" departLane="best" departSpeed="max" from="-113623051#5" to="26083145#1"/>
    <trip id="bus245" type="bus_bus" depart="1166.91" departLane="best" from="-172494805#4" to="14355163#0"/>
    <trip id="bus246" type="bus_bus" depart="1171.67" departLane="best" from="-128553070#0" to="10849888"/>
    <trip id="bus247" type="bus_bus" depart="1176.43" departLane="best" from="-23625319#0" to="-852783307#2"/>
    <trip id="bus248" type="bus_bus" depart="1181.20" departLane="best" departSpeed="max" from="31363692#0" to="10849888"/>
    <trip id="bus249" type="bus_bus" depart="1185.96" departLane="best" from="306035991" to="478803731#1"/>
    <trip id="bus250" type="bus_bus" depart="1190.72" departLane="best" departSpeed="max" from="-26500401#5" to="-16781611#0"/>
    <trip id="bus251" type="bus_bus" depart="1195.49" departLane="best" departSpeed="max" from="-10849888" to="194011509#7"/>
    <trip id="bus253" type="bus_bus" depart="1205.01" departLane="best" from="19836054#2" to="42756994#2"/>
    <trip id="bus255" type="bus_bus" depart="1214.54" departLane="best" departSpeed="max" from="8065617" to="-330618141#1"/>
    <trip id="bus256" type="bus_bus" depart="1219.30" departLane="best" from="-10850193#1" to="-23625310#0"/>
    <trip id="bus257" type="bus_bus" depart="1224.06" departLane="best" from="-16616143#0" to="27431546#1"/>
    <trip id="bus258" type="bus_bus" depart="1228.83" departLane="best" departSpeed="max" from="134874247" to="-39774364#4"/>
    <trip id="bus259" type="bus_bus" depart="1233.59" departLane="best" from="23230343#1" to="4053787"/>
    <trip id="bus260" type="bus_bus" depart="1238.35" departLane="best" from="-20796783#5" to="23625008"/>
    <trip id="bus261" type="bus_bus" depart="1243.11" departLane="best" from="284701350#3" to="-205105083#0"/>
    <trip id="bus263" type="bus_bus" depart="1252.64" departLane="best" from="-15805668#1" to="-12460985#10"/>
    <trip id="bus264" type="bus_bus" depart="1257.40" departLane="best" departSpeed="max" from="821229572#0" to="11988393#0"/>
    <trip id="bus265" type="bus_bus" depart="1262.17" departLane="best" from="24592262#2" to="-160567765#4"/>
    <trip id="bus266" type="bus_bus" depart="1266.93" departLane="best" from="22662931#0" to="25776325#1"/>
    <trip id="bus267" type="bus_bus" depart="1271.69" departLane="best" from="-15803930#0" to="412860100#2"/>
    <trip id="bus268" type="bus_bus" depart="1276.45" departLane="best" departSpeed="max" from="-16281750" to="957187891"/>
    <trip id="bus270" type="bus_bus" depart="1285.98" departLane="best" from="-642239584#0" to="10710456#0"/>
    <trip id="bus271" type="bus_bus" depart="1290.74" departLane="best" from="10472191#3" to="-929570682"/>
    <trip id="bus272" type="bus_bus" depart="1295.51" departLane="best" from="4648372" to="4709077#2"/>
    <trip id="bus273" type="bus_bus" depart="1300.27" departLane="best" from="-15804443" to="86645405#0"/>
    <trip id="bus274" type="bus_bus" depart="1305.03" departLane="best" departSpeed="max" from="173026671#0" to="474768032#2"/>
    <trip id="bus275" type="bus_bus" depart="1309.79" departLane="best" departSpeed="max" from="23625310#0" to="133267331#1"/>
    <trip id="bus276" type="bus_bus" depart="1314.56" departLane="best" from="26685996#1" to="882373843"/>
    <trip id="bus277" type="bus_bus" depart="1319.32" departLane="best" departSpeed="max" from="-276362696" to="4558724"/>
    <trip id="bus278" type="bus_bus" depart="1324.08" departLane="best" from="124329004#2" to="156260182"/>
    <trip id="bus280" type="bus_bus" depart="1333.61" departLane="best" from="-276362694#4" to="51372604"/>
    <trip id="bus281" type="bus_bus" depart="1338.37" departLane="best" from="433545662" to="-170515993"/>
    <trip id="bus282" type="bus_bus" depart="1343.13" departLane="best" from="50329530#0" to="-4558745#4"/>