<?xml version="1.0" encoding="UTF-8"?>

<!-- generated on 2022-10-02 11:36:48 by Eclipse SUMO duarouter Version 1.12.0
<configuration xmlns:xsi="http://www.w3.org/2001/XMLSchema-instance" xsi:noNamespaceSchemaLocation="http://sumo.dlr.de/xsd/duarouterConfiguration.xsd">

    <input>
        <net-file value="C:\Users\radan\Sumo\2022-10-02-11-33-29\osm.net.xml"/>
        <route-files value="C:\Users\radan\Sumo\2022-10-02-11-33-29\osm.passenger.trips.xml"/>
    </input>

    <output>
        <output-file value="C:\Users\radan\Sumo\2022-10-02-11-33-29\osm.passenger.trips.xml.tmp"/>
        <write-trips value="true"/>
    </output>

    <time>
        <begin value="0"/>
        <end value="3600"/>
    </time>

    <report>
        <no-warnings value="true"/>
        <ignore-errors value="true"/>
        <no-step-log value="true"/>
    </report>

</configuration>
-->

<routes xmlns:xsi="http://www.w3.org/2001/XMLSchema-instance" xsi:noNamespaceSchemaLocation="http://sumo.dlr.de/xsd/routes_file.xsd">
    <vType id="veh_passenger" vClass="passenger"/>
    <trip id="veh0" type="veh_passenger" depart="0.00" departLane="best" departSpeed="max" from="24592262#0" to="-12247150#2"/>
    <trip id="veh2" type="veh_passenger" depart="0.60" departLane="best" from="349884540#0" to="312313741"/>
    <trip id="veh3" type="veh_passenger" depart="0.90" departLane="best" from="611066331#0" to="-160567765#2"/>
    <trip id="veh4" type="veh_passenger" depart="1.20" departLane="best" from="114314604#0" to="-124728647#3"/>
    <trip id="veh5" type="veh_passenger" depart="1.50" departLane="best" departSpeed="max" from="-29188883" to="160576509"/>
    <trip id="veh6" type="veh_passenger" depart="1.80" departLane="best" departSpeed="max" from="-11987906#4" to="-33783726#1"/>
    <trip id="veh7" type="veh_passenger" depart="2.10" departLane="best" from="25930784#1" to="19836352#2"/>
    <trip id="veh8" type="veh_passenger" depart="2.40" departLane="best" departSpeed="max" from="-294301215#1" to="22758880#0"/>
    <trip id="veh9" type="veh_passenger" depart="2.70" departLane="best" from="4648146#2" to="-10710604#1"/>
    <trip id="veh10" type="veh_passenger" depart="3.00" departLane="best" from="4558740#3" to="332826606"/>
    <trip id="veh11" type="veh_passenger" depart="3.30" departLane="best" from="-686401729" to="-23625300"/>
    <trip id="veh12" type="veh_passenger" depart="3.60" departLane="best" departSpeed="max" from="863800707" to="-9526144#5"/>
    <trip id="veh13" type="veh_passenger" depart="3.90" departLane="best" from="-15804392#5" to="-170515986"/>
    <trip id="veh14" type="veh_passenger" depart="4.20" departLane="best" from="50106174#1" to="23625300"/>
    <trip id="veh15" type="veh_passenger" depart="4.50" departLane="best" from="4558756#1" to="364711092#0"/>
    <trip id="veh16" type="veh_passenger" depart="4.80" departLane="best" from="15805150#6" to="913824736#1"/>
    <trip id="veh17" type="veh_passenger" depart="5.10" departLane="best" departSpeed="max" from="-893785719" to="20350626#1"/>
    <trip id="veh18" type="veh_passenger" depart="5.40" departLane="best" from="474078645#0" to="25776332#1"/>
    <trip id="veh20" type="veh_passenger" depart="5.99" departLane="best" from="32063067#0" to="-13355419"/>
    <trip id="veh21" type="veh_passenger" depart="6.29" departLane="best" from="-31788414" to="-617212926#0"/>
    <trip id="veh22" type="veh_passenger" depart="6.59" departLane="best" from="-151509455" to="-438207656"/>
    <trip id="veh23" type="veh_passenger" depart="6.89" departLane="best" departSpeed="max" from="-16237228#1" to="-567022267#7"/>
    <trip id="veh24" type="veh_passenger" depart="7.19" departLane="best" from="23625310#2" to="10849888"/>
    <trip id="veh25" type="veh_passenger" depart="7.49" departLane="best" departSpeed="max" from="-852783307#3" to="-362847468#0"/>
    <trip id="veh26" type="veh_passenger" depart="7.79" departLane="best" from="-427981608#2" to="8065640#1"/>
    <trip id="veh27" type="veh_passenger" depart="8.09" departLane="best" from="25660656" to="24811436#1"/>
    <trip id="veh28" type="veh_passenger" depart="8.39" departLane="best" from="-23231171#1" to="36285970#4"/>
    <trip id="veh29" type="veh_passenger" depart="8.69" departLane="best" from="-22758875#1" to="116999350"/>
    <trip id="veh30" type="veh_passenger" depart="8.99" departLane="best" from="9525551#1" to="26675949#1"/>
    <trip id="veh31" type="veh_passenger" depart="9.29" departLane="best" from="170515994#1" to="314433509#1"/>
    <trip id="veh32" type="veh_passenger" depart="9.59" departLane="best" from="488415132#3" to="433552293"/>
    <trip id="veh33" type="veh_passenger" depart="9.89" departLane="best" departSpeed="max" from="-32039684" to="-128359785#1"/>
    <trip id="veh34" type="veh_passenger" depart="10.19" departLane="best" from="-545273068" to="-531488939"/>
    <trip id="veh35" type="veh_passenger" depart="10.49" departLane="best" departSpeed="max" from="-28221891" to="8168863#3"/>
    <trip id="veh36" type="veh_passenger" depart="10.79" departLane="best" from="567020091" to="-8161496#0"/>
    <trip id="veh37" type="veh_passenger" depart="11.09" departLane="best" from="261947567" to="12477218#2"/>
    <trip id="veh38" type="veh_passenger" depart="11.39" departLane="best" from="718298941#1" to="14354256#10"/>
    <trip id="veh39" type="veh_passenger" depart="11.69" departLane="best" from="-427981599#6" to="-46982815#2"/>
    <trip id="veh40" type="veh_passenger" depart="11.99" departLane="best" from="172969246" to="-503831062#1"/>
    <trip id="veh41" type="veh_passenger" depart="12.29" departLane="best" from="20334535#1" to="649771081"/>
    <trip id="veh42" type="veh_passenger" depart="12.59" departLane="best" from="105596379#11" to="-4048672#5"/>
    <trip id="veh43" type="veh_passenger" depart="12.89" departLane="best" from="979871685#0" to="16238255#0"/>
    <trip id="veh44" type="veh_passenger" depart="13.19" departLane="best" from="-15804180#0" to="-134874247"/>
    <trip id="veh45" type="veh_passenger" depart="13.49" departLane="best" from="-16781611#1" to="26083797#1"/>
    <trip id="veh46" type="veh_passenger" depart="13.79" departLane="best" from="436163584#1" to="131655053"/>
    <trip id="veh47" type="veh_passenger" depart="14.09" departLane="best" from="-13867697#4" to="118387931#2"/>
    <trip id="veh49" type="veh_passenger" depart="14.69" departLane="best" from="902624882#5" to="545908773"/>
    <trip id="veh50" type="veh_passenger" depart="14.99" departLane="best" from="-10848782#2" to="345710025"/>
    <trip id="veh51" type="veh_passenger" depart="15.29" departLane="best" from="29188880#1" to="186798123#1"/>
    <trip id="veh52" type="veh_passenger" depart="15.59" departLane="best" from="-427981608#1" to="26685945"/>
    <trip id="veh54" type="veh_passenger" depart="16.19" departLane="best" from="128933605#1" to="8614215"/>
    <trip id="veh56" type="veh_passenger" depart="16.78" departLane="best" from="143383348#1" to="-280299701#1"/>
    <trip id="veh57" type="veh_passenger" depart="17.08" departLane="best" from="702361424#0" to="573981209#0"/>
    <trip id="veh58" type="veh_passenger" depart="17.38" departLane="best" from="-490207842" to="26675257#1"/>
    <trip id="veh59" type="veh_passenger" depart="17.68" departLane="best" from="218339223#2" to="-23231192#0"/>
    <trip id="veh61" type="veh_passenger" depart="18.28" departLane="best" from="426932534#4" to="173131144#0"/>
    <trip id="veh62" type="veh_passenger" depart="18.58" departLane="best" from="-1000248545#0" to="-8614224"/>
    <trip id="veh63" type="veh_passenger" depart="18.88" departLane="best" from="-110329520#2" to="785469002#2"/>
    <trip id="veh64" type="veh_passenger" depart="19.18" departLane="best" from="574053721#0" to="482716954#3"/>
    <trip id="veh65" type="veh_passenger" depart="19.48" departLane="best" from="-51528218#2" to="-14307266#0"/>
    <trip id="veh66" type="veh_passenger" depart="19.78" departLane="best" from="573981202#1" to="8308676#4"/>
    <trip id="veh67" type="veh_passenger" depart="20.08" departLane="best" from="-14354039#0" to="41385094"/>
    <trip id="veh68" type="veh_passenger" depart="20.38" departLane="best" from="4048668" to="-21629395#0"/>
    <trip id="veh69" type="veh_passenger" depart="20.68" departLane="best" from="133140154#1" to="201753145#1"/>
    <trip id="veh70" type="veh_passenger" depart="20.98" departLane="best" from="-427981599#9" to="578724727#1"/>
    <trip id="veh71" type="veh_passenger" depart="21.28" departLane="best" from="114750734" to="-365267526#12"/>
    <trip id="veh72" type="veh_passenger" depart="21.58" departLane="best" from="15805668#4" to="364711094#1"/>
    <trip id="veh73" type="veh_passenger" depart="21.88" departLane="best" departSpeed="max" from="-26686126" to="-8065593#6"/>
    <trip id="veh74" type="veh_passenger" depart="22.18" departLane="best" from="970690063#2" to="276362696"/>
    <trip id="veh75" type="veh_passenger" depart="22.48" departLane="best" from="124329036#0" to="16941319"/>
    <trip id="veh76" type="veh_passenger" depart="22.78" departLane="best" departSpeed="max" from="-17659832" to="-425529592"/>
    <trip id="veh77" type="veh_passenger" depart="23.08" departLane="best" departSpeed="max" from="-649771081" to="22758870#2"/>
    <trip id="veh78" type="veh_passenger" depart="23.38" departLane="best" from="-32239933#1" to="-4048673#5"/>
    <trip id="veh79" type="veh_passenger" depart="23.68" departLane="best" departSpeed="max" from="-14354417#2" to="261948074#1"/>
    <trip id="veh80" type="veh_passenger" depart="23.98" departLane="best" departSpeed="max" from="-32039684" to="690750605"/>
    <trip id="veh81" type="veh_passenger" depart="24.28" departLane="best" from="531490207#0" to="-15430557#1"/>
    <trip id="veh82" type="veh_passenger" depart="24.58" departLane="best" from="-34398218#0" to="303519497#6"/>
    <trip id="veh83" type="veh_passenger" depart="24.88" departLane="best" from="-28446659#0" to="-21630510#1"/>
    <trip id="veh84" type="veh_passenger" depart="25.18" departLane="best" from="804696024#0" to="217850404#1"/>
    <trip id="veh85" type="veh_passenger" depart="25.48" departLane="best" from="133101681#2" to="445433972#0"/>
    <trip id="veh86" type="veh_passenger" depart="25.78" departLane="best" from="460505837#2" to="-31363718#1"/>
    <trip id="veh87" type="veh_passenger" depart="26.08" departLane="best" from="-158525479#3" to="133140148#1"/>
    <trip id="veh88" type="veh_passenger" depart="26.38" departLane="best" from="11491903#4" to="143952403"/>
    <trip id="veh89" type="veh_passenger" depart="26.68" departLane="best" from="345306198#1" to="30964502#1"/>
    <trip id="veh90" type="veh_passenger" depart="26.98" departLane="best" from="939807403" to="-170515995"/>
    <trip id="veh91" type="veh_passenger" depart="27.28" departLane="best" from="10710604#2" to="-972124385#0"/>
    <trip id="veh93" type="veh_passenger" depart="27.87" departLane="best" from="-25946605#1" to="140491977#2"/>
    <trip id="veh94" type="veh_passenger" depart="28.17" departLane="best" from="114191131" to="-573971673#1"/>
    <trip id="veh95" type="veh_passenger" depart="28.47" departLane="best" from="-369252946" to="764152778#0"/>
    <trip id="veh96" type="veh_passenger" depart="28.77" departLane="best" from="126133881#0" to="545908776"/>
    <trip id="veh97" type="veh_passenger" depart="29.07" departLane="best" from="16616258#0" to="-137844102#0"/>
    <trip id="veh98" type="veh_passenger" depart="29.37" departLane="best" from="993478687" to="4930000"/>
    <trip id="veh99" type="veh_passenger" depart="29.67" departLane="best" from="889162055#1" to="77430896#4"/>
    <trip id="veh100" type="veh_passenger" depart="29.97" departLane="best" from="50110079#10" to="-25946964#1"/>
    <trip id="veh101" type="veh_passenger" depart="30.27" departLane="best" from="13867658#1" to="-377769070#0"/>
    <trip id="veh102" type="veh_passenger" depart="30.57" departLane="best" from="-902624881#3" to="940537204#1"/>
    <trip id="veh103" type="veh_passenger" depart="30.87" departLane="best" from="-427981600#0" to="4452414#1"/>
    <trip id="veh104" type="veh_passenger" depart="31.17" departLane="best" from="128933610#1" to="131655056#3"/>
    <trip id="veh105" type="veh_passenger" depart="31.47" departLane="best" departSpeed="max" from="863800707" to="972903396#2"/>
    <trip id="veh106" type="veh_passenger" depart="31.77" departLane="best" from="170515987#0" to="345306206#0"/>
    <trip id="veh107" type="veh_passenger" depart="32.07" departLane="best" from="-220875037#2" to="-71231238#0"/>
    <trip id="veh108" type="veh_passenger" depart="32.37" departLane="best" departSpeed="max" from="889162055#0" to="22120478"/>
    <trip id="veh109" type="veh_passenger" depart="32.67" departLane="best" from="160567765#4" to="39700404#5"/>
    <trip id="veh110" type="veh_passenger" depart="32.97" departLane="best" from="-135738852" to="22663119#2"/>
    <trip id="veh111" type="veh_passenger" depart="33.27" departLane="best" from="14354808#8" to="531491793"/>
    <trip id="veh112" type="veh_passenger" depart="33.57" departLane="best" departSpeed="max" from="-22393113" to="882373842#0"/>
    <trip id="veh113" type="veh_passenger" depart="33.87" departLane="best" from="-15230228#2" to="-30846911#0"/>
    <trip id="veh115" type="veh_passenger" depart="34.47" departLane="best" from="-33783728#0" to="-205105083#0"/>
    <trip id="veh116" type="veh_passenger" depart="34.77" departLane="best" from="598540915#0" to="-4672502#0"/>
    <trip id="veh117" type="veh_passenger" depart="35.07" departLane="best" from="21494476#1" to="25828934"/>
    <trip id="veh118" type="veh_passenger" depart="35.37" departLane="best" from="111450429#0" to="22662931#1"/>
    <trip id="veh119" type="veh_passenger" depart="35.67" departLane="best" from="15576817#1" to="804696024#1"/>
    <trip id="veh120" type="veh_passenger" depart="35.97" departLane="best" from="-27557810" to="345306198#26"/>
    <trip id="veh121" type="veh_passenger" depart="36.27" departLane="best" from="-34398218#8" to="12477218#3"/>
    <trip id="veh122" type="veh_passenger" depart="36.57" departLane="best" from="27806737#0" to="-740525947#3"/>
    <trip id="veh123" type="veh_passenger" depart="36.87" departLane="best" from="-545287629#2" to="4048669#6"/>
    <trip id="veh124" type="veh_passenger" depart="37.17" departLane="best" from="-143563982#0" to="143383348#1"/>
    <trip id="veh125" type="veh_passenger" depart="37.47" departLane="best" from="986293963#1" to="972903399#3"/>
    <trip id="veh126" type="veh_passenger" depart="37.77" departLane="best" from="-143588175" to="-375435009#0"/>
    <trip id="veh127" type="veh_passenger" depart="38.07" departLane="best" from="-427981600#0" to="8027134#3"/>
    <trip id="veh128" type="veh_passenger" depart="38.37" departLane="best" from="583856161#1" to="593758918"/>
    <trip id="veh129" type="veh_passenger" depart="38.66" departLane="best" departSpeed="max" from="-852783301#2" to="-242345343"/>
    <trip id="veh130" type="veh_passenger" depart="38.96" departLane="best" from="479544433" to="33770306#5"/>
    <trip id="veh131" type="veh_passenger" depart="39.26" departLane="best" from="22089331#3" to="946316124#1"/>
    <trip id="veh132" type="veh_passenger" depart="39.56" departLane="best" from="261369535#0" to="-108098095#4"/>
    <trip id="veh133" type="veh_passenger" depart="39.86" departLane="best" from="4672502#1" to="-740525943#0"/>
    <trip id="veh134" type="veh_passenger" depart="40.16" departLane="best" from="26675986#0" to="813238015"/>
    <trip id="veh135" type="veh_passenger" depart="40.46" departLane="best" from="-201753145#0" to="-201722836#2"/>
    <trip id="veh136" type="veh_passenger" depart="40.76" departLane="best" from="-16614512#4" to="20796769#1"/>
    <trip id="veh137" type="veh_passenger" depart="41.06" departLane="best" from="-442751905#0" to="23625325#2"/>
    <trip id="veh138" type="veh_passenger" depart="41.36" departLane="best" from="33764387#1" to="-345276763#3"/>
    <trip id="veh139" type="veh_passenger" depart="41.66" departLane="best" from="23624984#2" to="-513855430#1"/>
    <trip id="veh140" type="veh_passenger" depart="41.96" departLane="best" departSpeed="max" from="138743644#0" to="689363889#5"/>
    <trip id="veh141" type="veh_passenger" depart="42.26" departLane="best" from="498862793#0" to="-16614512#1"/>
    <trip id="veh142" type="veh_passenger" depart="42.56" departLane="best" from="11491903#4" to="-552314254"/>
    <trip id="veh144" type="veh_passenger" depart="43.16" departLane="best" from="23625675#1" to="-50110079#8"/>
    <trip id="veh145" type="veh_passenger" depart="43.46" departLane="best" from="35458165#1" to="20333536#1"/>
    <trip id="veh146" type="veh_passenger" depart="43.76" departLane="best" from="118387931#5" to="-10849099#0"/>
    <trip id="veh147" type="veh_passenger" depart="44.06" departLane="best" from="-144061050#3" to="598555958"/>
    <trip id="veh148" type="veh_passenger" depart="44.36" departLane="best" from="666151135#1" to="19845792#3"/>
    <trip id="veh149" type="veh_passenger" depart="44.66" departLane="best" from="479544442" to="22393113"/>
    <trip id="veh150" type="veh_passenger" depart="44.96" departLane="best" departSpeed="max" from="-21630026#2" to="-215566869#1"/>
    <trip id="veh151" type="veh_passenger" depart="45.26" departLane="best" from="-5197813#2" to="666151135#1"/>
    <trip id="veh152" type="veh_passenger" depart="45.56" departLane="best" from="445433972#0" to="545908773"/>
    <trip id="veh153" type="veh_passenger" depart="45.86" departLane="best" from="62183285#0" to="-36285970#0"/>
    <trip id="veh155" type="veh_passenger" depart="46.46" departLane="best" from="427981599#1" to="60577099#2"/>
    <trip id="veh156" type="veh_passenger" depart="46.76" departLane="best" from="108098095#7" to="258878562"/>
    <trip id="veh157" type="veh_passenger" depart="47.06" departLane="best" from="-220134427#1" to="78898222#1"/>
    <trip id="veh158" type="veh_passenger" depart="47.36" departLane="best" from="545030233" to="935616350"/>
    <trip id="veh159" type="veh_passenger" depart="47.66" departLane="best" from="4648152#1" to="596103402"/>
    <trip id="veh160" type="veh_passenger" depart="47.96" departLane="best" from="-118387904" to="366863556"/>
    <trip id="veh161" type="veh_passenger" depart="48.26" departLane="best" from="4558723#3" to="545908792#4"/>
    <trip id="veh162" type="veh_passenger" depart="48.56" departLane="best" from="4648152#0" to="-52733608#1"/>
    <trip id="veh163" type="veh_passenger" depart="48.86" departLane="best" from="433545663" to="-189565639#0"/>
    <trip id="veh164" type="veh_passenger" depart="49.16" departLane="best" from="545908792#1" to="545287627#0"/>
    <trip id="veh165" type="veh_passenger" depart="49.45" departLane="best" from="-308358615#0" to="4709299#9"/>
    <trip id="veh166" type="veh_passenger" depart="49.75" departLane="best" from="130071879#12" to="-78446228#0"/>
    <trip id="veh167" type="veh_passenger" depart="50.05" departLane="best" from="4452405#3" to="-427981605#0"/>
    <trip id="veh168" type="veh_passenger" depart="50.35" departLane="best" from="-114615452" to="-31728010#1"/>
    <trip id="veh169" type="veh_passenger" depart="50.65" departLane="best" from="-593758916#2" to="545908794#1"/>
    <trip id="veh170" type="veh_passenger" depart="50.95" departLane="best" from="886440451#0" to="-574385204#1"/>
    <trip id="veh171" type="veh_passenger" depart="51.25" departLane="best" from="24811436#6" to="128359785#3"/>
    <trip id="veh172" type="veh_passenger" depart="51.55" departLane="best" from="939807380" to="186574307#6"/>
    <trip id="veh174" type="veh_passenger" depart="52.15" departLane="best" from="899260463" to="-27994392#0"/>
    <trip id="veh175" type="veh_passenger" depart="52.45" departLane="best" departSpeed="max" from="88366586" to="-51528423#2"/>
    <trip id="veh176" type="veh_passenger" depart="52.75" departLane="best" from="-16615979" to="13354544"/>
    <trip id="veh178" type="veh_passenger" depart="53.35" departLane="best" from="217859795" to="165488341#1"/>
    <trip id="veh179" type="veh_passenger" depart="53.65" departLane="best" from="-9661621#1" to="218339223#0"/>
    <trip id="veh180" type="veh_passenger" depart="53.95" departLane="best" from="-399077977" to="34147941#1"/>
    <trip id="veh181" type="veh_passenger" depart="54.25" departLane="best" from="-1014078505" to="772212978"/>
    <trip id="veh182" type="veh_passenger" depart="54.55" departLane="best" from="15805657" to="345306207#0"/>
    <trip id="veh183" type="veh_passenger" depart="54.85" departLane="best" departSpeed="max" from="362847468#0" to="308352411"/>
    <trip id="veh184" type="veh_passenger" depart="55.15" departLane="best" from="-8161496#6" to="-15243303"/>
    <trip id="veh185" type="veh_passenger" depart="55.45" departLane="best" from="26685996#0" to="-896009877"/>
    <trip id="veh186" type="veh_passenger" depart="55.75" departLane="best" from="-545030235" to="5197814#1"/>
    <trip id="veh187" type="veh_passenger" depart="56.05" departLane="best" from="33783726#5" to="-744544346#0"/>
    <trip id="veh188" type="veh_passenger" depart="56.35" departLane="best" from="-52733608#2" to="128933603"/>
    <trip id="veh189" type="veh_passenger" depart="56.65" departLane="best" from="10710456#4" to="-691228570#0"/>
    <trip id="veh190" type="veh_passenger" depart="56.95" departLane="best" from="-197638425#0" to="13134013"/>
    <trip id="veh191" type="veh_passenger" depart="57.25" departLane="best" from="8134336#2" to="312317010#0"/>
    <trip id="veh192" type="veh_passenger" depart="57.55" departLane="best" from="64204795#1" to="25384159#6"/>
    <trip id="veh194" type="veh_passenger" depart="58.15" departLane="best" departSpeed="max" from="-1000063460" to="-598540914"/>
    <trip id="veh195" type="veh_passenger" depart="58.45" departLane="best" from="11987929#0" to="22123096#0"/>
    <trip id="veh196" type="veh_passenger" depart="58.75" departLane="best" from="261603000#2" to="143588183#8"/>
    <trip id="veh197" type="veh_passenger" depart="59.05" departLane="best" from="12480597#1" to="-377769070#0"/>
    <trip id="veh198" type="veh_passenger" depart="59.35" departLane="best" from="133135208" to="686133613#0"/>
    <trip id="veh199" type="veh_passenger" depart="59.65" departLane="best" from="4452414#1" to="-26574007#1"/>
    <trip id="veh200" type="veh_passenger" depart="59.95" departLane="best" from="-156260171#0" to="16616280#2"/>
    <trip id="veh202" type="veh_passenger" depart="60.54" departLane="best" from="46983737#1" to="4048667"/>
    <trip id="veh203" type="veh_passenger" depart="60.84" departLane="best" from="279877425" to="-425528993#0"/>
    <trip id="veh204" type="veh_passenger" depart="61.14" departLane="best" departSpeed="max" from="-26621811#2" to="-12243253#1"/>
    <trip id="veh205" type="veh_passenger" depart="61.44" departLane="best" departSpeed="max" from="-34924637#2" to="14615299#1"/>
    <trip id="veh206" type="veh_passenger" depart="61.74" departLane="best" from="50110382#5" to="-15576817#2"/>
    <trip id="veh207" type="veh_passenger" depart="62.04" departLane="best" from="1091985879#2" to="261603001#0"/>
    <trip id="veh208" type="veh_passenger" depart="62.34" departLane="best" from="-261369536#0" to="332821759"/>
    <trip id="veh209" type="veh_passenger" depart="62.64" departLane="best" from="14296169#1" to="-4648153#0"/>
    <trip id="veh210" type="veh_passenger" depart="62.94" departLane="best" from="261948073" to="-1067710448#1"/>
    <trip id="veh211" type="veh_passenger" depart="63.24" departLane="best" from="366863579#0" to="427981607#0"/>
    <trip id="veh212" type="veh_passenger" depart="63.54" departLane="best" from="-16590426#1" to="132008994"/>
    <trip id="veh213" type="veh_passenger" depart="63.84" departLane="best" departSpeed="max" from="-23625325#2" to="87528034"/>
    <trip id="veh214" type="veh_passenger" depart="64.14" departLane="best" from="151509457#1" to="-136408106#0"/>
    <trip id="veh216" type="veh_passenger" depart="64.74" departLane="best" from="129043108#5" to="4648146#3"/>
    <trip id="veh217" type="veh_passenger" depart="65.04" departLane="best" from="27557809#1" to="9525551#2"/>
    <trip id="veh218" type="veh_passenger" depart="65.34" departLane="best" from="21618252#11" to="852783307#2"/>
    <trip id="veh219" type="veh_passenger" depart="65.64" departLane="best" from="610881092#0" to="253620757"/>
    <trip id="veh220" type="veh_passenger" depart="65.94" departLane="best" from="33770309" to="160574779#0"/>
    <trip id="veh222" type="veh_passenger" depart="66.54" departLane="best" from="621786636#3" to="392506818"/>
    <trip id="veh223" type="veh_passenger" depart="66.84" departLane="best" from="133140148#1" to="-500534479#2"/>
    <trip id="veh224" type="veh_passenger" depart="67.14" departLane="best" from="-361830215#2" to="26621819#1"/>
    <trip id="veh225" type="veh_passenger" depart="67.44" departLane="best" from="4048668" to="17097976#2"/>
    <trip id="veh226" type="veh_passenger" depart="67.74" departLane="best" from="229210347#1" to="-545287630#1"/>
    <trip id="veh227" type="veh_passenger" depart="68.04" departLane="best" from="-14615299#0" to="-595907706#1"/>
    <trip id="veh228" type="veh_passenger" depart="68.34" departLane="best" departSpeed="max" from="-43761815" to="-8308676#6"/>
    <trip id="veh229" type="veh_passenger" depart="68.64" departLane="best" from="158525479#1" to="-22126059#2"/>
    <trip id="veh230" type="veh_passenger" depart="68.94" departLane="best" from="-32848359#0" to="332808487#0"/>
    <trip id="veh231" type="veh_passenger" depart="69.24" departLane="best" from="327957612#1" to="-143952417"/>
    <trip id="veh232" type="veh_passenger" depart="69.54" departLane="best" from="10848510#2" to="19835628#1"/>
    <trip id="veh233" type="veh_passenger" depart="69.84" departLane="best" from="10930393#1" to="-345710027#0"/>
    <trip id="veh234" type="veh_passenger" depart="70.14" departLane="best" from="111504657#3" to="688705425"/>
    <trip id="veh235" type="veh_passenger" depart="70.44" departLane="best" departSpeed="max" from="20333536#0" to="332816884"/>
    <trip id="veh236" type="veh_passenger" depart="70.74" departLane="best" from="526007891" to="426932534#2"/>
    <trip id="veh237" type="veh_passenger" depart="71.04" departLane="best" from="-919842924#0" to="-1070722718#0"/>
    <trip id="veh238" type="veh_passenger" depart="71.34" departLane="best" from="-762641115" to="4048673#5"/>
    <trip id="veh239" type="veh_passenger" depart="71.63" departLane="best" departSpeed="max" from="51528218#0" to="8614211"/>
    <trip id="veh240" type="veh_passenger" depart="71.93" departLane="best" from="110846103#1" to="39700403#2"/>
    <trip id="veh241" type="veh_passenger" depart="72.23" departLane="best" from="16238255#0" to="23625059"/>
    <trip id="veh242" type="veh_passenger" depart="72.53" departLane="best" from="-301916240#2" to="-4048672#6"/>
    <trip id="veh243" type="veh_passenger" depart="72.83" departLane="best" from="12350490#1" to="-12460985#7"/>
    <trip id="veh244" type="veh_passenger" depart="73.13" departLane="best" from="-623095584" to="312895385"/>
    <trip id="veh245" type="veh_passenger" depart="73.43" departLane="best" from="10711034#1" to="-25946519#0"/>
    <trip id="veh246" type="veh_passenger" depart="73.73" departLane="best" from="131765099#0" to="-21617884#2"/>
    <trip id="veh247" type="veh_passenger" depart="74.03" departLane="best" from="22758883" to="-12350490#3"/>
    <trip id="veh248" type="veh_passenger" depart="74.33" departLane="best" from="102029790#3" to="21618593#1"/>
    <trip id="veh249" type="veh_passenger" depart="74.63" departLane="best" departSpeed="max" from="-11988486#3" to="26686235"/>
    <trip id="veh250" type="veh_passenger" depart="74.93" departLane="best" departSpeed="max" from="-202514549#1" to="14355294#4"/>
    <trip id="veh251" type="veh_passenger" depart="75.23" departLane="best" from="-133101681#1" to="116999346#0"/>
    <trip id="veh252" type="veh_passenger" depart="75.53" departLane="best" departSpeed="max" from="-28445295#2" to="-879373544#0"/>
    <trip id="veh253" type="veh_passenger" depart="75.83" departLane="best" from="39700403#1" to="116999346#0"/>
    <trip id="veh254" type="veh_passenger" depart="76.13" departLane="best" departSpeed="max" from="366863589" to="482716954#4"/>
    <trip id="veh255" type="veh_passenger" depart="76.43" departLane="best" from="-392506835#2" to="-15804508#2"/>
    <trip id="veh256" type="veh_passenger" depart="76.73" departLane="best" from="-110329520#1" to="194011509#7"/>
    <trip id="veh259" type="veh_passenger" depart="77.63" departLane="best" from="25946605#4" to="4053526"/>
    <trip id="veh261" type="veh_passenger" depart="78.23" departLane="best" from="-111450429#2" to="-23231142"/>
    <trip id="veh262" type="veh_passenger" depart="78.53" departLane="best" departSpeed="max" from="-194011509#7" to="305907254"/>
    <trip id="veh263" type="veh_passenger" depart="78.83" departLane="best" from="173068141#3" to="-4018014#0"/>
    <trip id="veh264" type="veh_passenger" depart="79.13" departLane="best" departSpeed="max" from="31363698" to="42756558"/>
    <trip id="veh265" type="veh_passenger" depart="79.43" departLane="best" departSpeed="max" from="-22937091#1" to="240495014#1"/>
    <trip id="veh266" type="veh_passenger" depart="79.73" departLane="best" from="366863497" to="-19845792#4"/>
    <trip id="veh267" type="veh_passenger" depart="80.03" departLane="best" from="4709061#4" to="88375324#6"/>
    <trip id="veh268" type="veh_passenger" depart="80.33" departLane="best" departSpeed="max" from="-16615842" to="-123189225#0"/>
    <trip id="veh269" type="veh_passenger" depart="80.63" departLane="best" from="-531490211#1" to="312317010#0"/>