<?xml version="1.0" encoding="UTF-8"?>
<!-- generated on 2022-10-02 11:41:57.432603 by osmWebWizard.py v1_12_0+0000-800cb422fa4
  options: 
-->
<routes xmlns:xsi="http://www.w3.org/2001/XMLSchema-instance" xsi:noNamespaceSchemaLocation="http://sumo.dlr.de/xsd/routes_file.xsd">
    <vType id="ped_pedestrian" vClass="pedestrian"/>
    <person id="ped0" depart="0.00" type="ped_pedestrian">
        <walk from="107789165#1" to="-925576425#1"/>
    </person>
    <person id="ped1" depart="0.22" type="ped_pedestrian">
        <walk from="568762281" to="473530893#0"/>
    </person>
    <person id="ped2" depart="0.44" type="ped_pedestrian">
        <walk from="143575789#1" to="-113755642#0"/>
    </person>
    <person id="ped3" depart="0.67" type="ped_pedestrian">
        <walk from="-900942839#0" to="23701015#7"/>
    </person>
    <person id="ped4" depart="0.89" type="ped_pedestrian">
        <walk from="-913693040#1" to="332001616#0"/>
    </person>
    <person id="ped5" depart="1.11" type="ped_pedestrian">
        <walk from="-23625310#1" to="-252455685"/>
    </person>
    <person id="ped6" depart="1.33" type="ped_pedestrian">
        <walk from="723504008#2" to="36331648#2"/>
    </person>
    <person id="ped7" depart="1.55" type="ped_pedestrian">
        <walk from="791437527#0" to="32299634#1"/>
    </person>
    <person id="ped8" depart="1.77" type="ped_pedestrian">
        <walk from="513240548#0" to="-123300059#0"/>
    </person>
    <person id="ped9" depart="2.00" type="ped_pedestrian">
        <walk from="39549788#1" to="125453736"/>
    </person>
    <person id="ped10" depart="2.22" type="ped_pedestrian">
        <walk from="-61189666#0" to="554695157#0"/>
    </person>
    <person id="ped11" depart="2.44" type="ped_pedestrian">
        <walk from="113757549#0" to="1057216519"/>
    </person>
    <person id="ped12" depart="2.66" type="ped_pedestrian">
        <walk from="-86712171#7" to="905396930#4"/>
    </person>
    <person id="ped13" depart="2.88" type="ped_pedestrian">
        <walk from="431796777#0" to="142834703#0"/>
    </person>
    <person id="ped14" depart="3.10" type="ped_pedestrian">
        <walk from="-27993762#0" to="372398168#1"/>
    </person>
    <person id="ped15" depart="3.33" type="ped_pedestrian">
        <walk from="666151132#1" to="143588205#4"/>
    </person>
    <person id="ped16" depart="3.55" type="ped_pedestrian">
        <walk from="1053471159" to="402629835"/>
    </person>
    <person id="ped17" depart="3.77" type="ped_pedestrian">
        <walk from="61222080#4" to="276291308"/>
    </person>
    <person id="ped18" depart="3.99" type="ped_pedestrian">
        <walk from="650290217" to="26522664"/>
    </person>
    <person id="ped19" depart="4.21" type="ped_pedestrian">
        <walk from="-111027961" to="892733944"/>
    </person>
    <person id="ped20" depart="4.43" type="ped_pedestrian">
        <walk from="98568766#2" to="42615474#0"/>
    </person>
    <person id="ped21" depart="4.66" type="ped_pedestrian">
        <walk from="161570981#1" to="25660536#5"/>
    </person>
    <person id="ped22" depart="4.88" type="ped_pedestrian">
        <walk from="-16588081#1" to="379889325"/>
    </person>
    <person id="ped23" depart="5.10" type="ped_pedestrian">
        <walk from="-945870931#3" to="876522143"/>
    </person>
    <person id="ped24" depart="5.32" type="ped_pedestrian">
        <walk from="554695156" to="465305852#1"/>
    </person>
    <person id="ped25" depart="5.54" type="ped_pedestrian">
        <walk from="963949561#0" to="-25857015#2"/>
    </person>
    <person id="ped26" depart="5.76" type="ped_pedestrian">
        <walk from="142956213#5" to="114614717#1"/>
    </person>
    <person id="ped27" depart="5.99" type="ped_pedestrian">
        <walk from="-981541596#1" to="-319179863"/>
    </person>
    <person id="ped28" depart="6.21" type="ped_pedestrian">
        <walk from="852735084#1" to="1014390966#0"/>
    </person>
    <person id="ped29" depart="6.43" type="ped_pedestrian">
        <walk from="143572247#1" to="32889845#4"/>
    </person>
    <person id="ped30" depart="6.65" type="ped_pedestrian">
        <walk from="-809556211" to="539978229"/>
    </person>
    <person id="ped31" depart="6.87" type="ped_pedestrian">
        <walk from="1007640885" to="142834708#0"/>
    </person>
    <person id="ped32" depart="7.10" type="ped_pedestrian">
        <walk from="113757555#1" to="598313127#0"/>
    </person>
    <person id="ped33" depart="7.32" type="ped_pedestrian">
        <walk from="-16943245#8" to="17676544#3"/>
    </person>
    <person id="ped34" depart="7.54" type="ped_pedestrian">
        <walk from="821229583#2" to="817233783#1"/>
    </person>
    <person id="ped35" depart="7.76" type="ped_pedestrian">
        <walk from="128359803#1" to="-519991826"/>
    </person>
    <person id="ped36" depart="7.98" type="ped_pedestrian">
        <walk from="42939752#0" to="-104849465"/>
    </person>
    <person id="ped37" depart="8.20" type="ped_pedestrian">
        <walk from="545126967#1" to="-804229956"/>
    </person>
    <person id="ped38" depart="8.43" type="ped_pedestrian">
        <walk from="392930767#6" to="104845731#0"/>
    </person>
    <person id="ped39" depart="8.65" type="ped_pedestrian">
        <walk from="757691835#0" to="-23624717#1"/>
    </person>
    <person id="ped40" depart="8.87" type="ped_pedestrian">
        <walk from="143588290" to="108091361"/>
    </person>
    <person id="ped41" depart="9.09" type="ped_pedestrian">
        <walk from="-1034741870" to="629099019#3"/>
    </person>
    <person id="ped42" depart="9.31" type="ped_pedestrian">
        <walk from="-171870409#1" to="826235674#1"/>
    </person>
    <person id="ped43" depart="9.53" type="ped_pedestrian">
        <walk from="87528027" to="28142574#3"/>
    </person>
    <person id="ped44" depart="9.76" type="ped_pedestrian">
        <walk from="867672895#4" to="-86645411#0"/>
    </person>
    <person id="ped45" depart="9.98" type="ped_pedestrian">
        <walk from="-50110391#2" to="893180996#2"/>
    </person>
    <person id="ped46" depart="10.20" type="ped_pedestrian">
        <walk from="79289314#0" to="953577836"/>
    </person>
    <person id="ped47" depart="10.42" type="ped_pedestrian">
        <walk from="113757811" to="893690550"/>
    </person>
    <person id="ped48" depart="10.64" type="ped_pedestrian">
        <walk from="662698524" to="-27435145"/>
    </person>
    <person id="ped49" depart="10.86" type="ped_pedestrian">
        <walk from="-111028108#1" to="-759225005"/>
    </person>
    <person id="ped50" depart="11.09" type="ped_pedestrian">
        <walk from="113757688#1" to="79289293#3"/>
    </person>
    <person id="ped51" depart="11.31" type="ped_pedestrian">
        <walk from="939076036#1" to="104883033#0"/>
    </person>
    <person id="ped52" depart="11.53" type="ped_pedestrian">
        <walk from="-1014405172" to="887939053#0"/>
    </person>
    <person id="ped53" depart="11.75" type="ped_pedestrian">
        <walk from="125453712#0" to="-16277376#8"/>
    </person>
    <person id="ped54" depart="11.97" type="ped_pedestrian">
        <walk from="440398500#0" to="113757706#0"/>
    </person>
    <person id="ped55" depart="12.19" type="ped_pedestrian">
        <walk from="113753839#0" to="143058868"/>
    </person>
    <person id="ped56" depart="12.42" type="ped_pedestrian">
        <walk from="902320243#1" to="475591888"/>
    </person>
    <person id="ped57" depart="12.64" type="ped_pedestrian">
        <walk from="431796768#7" to="187646246"/>
    </person>
    <person id="ped58" depart="12.86" type="ped_pedestrian">
        <walk from="391018706#3" to="113758956"/>
    </person>
    <person id="ped59" depart="13.08" type="ped_pedestrian">
        <walk from="700344038#0" to="598083358#2"/>
    </person>
    <person id="ped60" depart="13.30" type="ped_pedestrian">
        <walk from="-79289292#1" to="-111028126#6"/>
    </person>
    <person id="ped61" depart="13.53" type="ped_pedestrian">
        <walk from="762641115" to="-16943305"/>
    </person>
    <person id="ped62" depart="13.75" type="ped_pedestrian">
        <walk from="8611056#1" to="356384752#2"/>
    </person>
    <person id="ped63" depart="13.97" type="ped_pedestrian">
        <walk from="728854097#1" to="28273855#0"/>
    </person>
    <person id="ped64" depart="14.19" type="ped_pedestrian">
        <walk from="86712171#5" to="588961291#5"/>
    </person>
    <person id="ped65" depart="14.41" type="ped_pedestrian">
        <walk from="51527965#1" to="-149844190#1"/>
    </person>
    <person id="ped66" depart="14.63" type="ped_pedestrian">
        <walk from="32889851#1" to="50108292#4"/>
    </person>
    <person id="ped67" depart="14.86" type="ped_pedestrian">
        <walk from="781331484#0" to="617212930#4"/>
    </person>
    <person id="ped68" depart="15.08" type="ped_pedestrian">
        <walk from="28142577#5" to="345719280"/>
    </person>
    <person id="ped69" depart="15.30" type="ped_pedestrian">
        <walk from="159309752#1" to="-113753847#3"/>
    </person>
    <person id="ped70" depart="15.52" type="ped_pedestrian">
        <walk from="114290558" to="478996345#2"/>
    </person>
    <person id="ped71" depart="15.74" type="ped_pedestrian">
        <walk from="368489797#2" to="-113513777#1"/>
    </person>
    <person id="ped72" depart="15.96" type="ped_pedestrian">
        <walk from="-113513805#1" to="407662693#0"/>
    </person>
    <person id="ped73" depart="16.19" type="ped_pedestrian">
        <walk from="598313129#1" to="728854114"/>
    </person>
    <person id="ped74" depart="16.41" type="ped_pedestrian">
        <walk from="1026957451" to="-199206643#0"/>
    </person>
    <person id="ped75" depart="16.63" type="ped_pedestrian">
        <walk from="426932541#2" to="651146570#1"/>
    </person>
    <person id="ped76" depart="16.85" type="ped_pedestrian">
        <walk from="427107062" to="60578911"/>
    </person>
    <person id="ped77" depart="17.07" type="ped_pedestrian">
        <walk from="-592660224" to="348894719#2"/>
    </person>
    <person id="ped78" depart="17.29" type="ped_pedestrian">
        <walk from="492339314#3" to="372398166#2"/>
    </person>
    <person id="ped79" depart="17.52" type="ped_pedestrian">
        <walk from="-261603004#1" to="636563901#0"/>
    </person>
    <person id="ped80" depart="17.74" type="ped_pedestrian">
        <walk from="39549787#3" to="723503323#10"/>
    </person>
    <person id="ped81" depart="17.96" type="ped_pedestrian">
        <walk from="728854099#1" to="-22124446#0"/>
    </person>
    <person id="ped82" depart="18.18" type="ped_pedestrian">
        <walk from="825287234#0" to="1014387572#0"/>
    </person>
    <person id="ped83" depart="18.40" type="ped_pedestrian">
        <walk from="-105780650#0" to="914463342#0"/>
    </person>
    <person id="ped84" depart="18.62" type="ped_pedestrian">
        <walk from="32887851#0" to="193363681#5"/>
    </person>
    <person id="ped85" depart="18.85" type="ped_pedestrian">
        <walk from="265278226" to="14615299#1"/>
    </person>
    <person id="ped86" depart="19.07" type="ped_pedestrian">
        <walk from="592195150#2" to="113757711#4"/>
    </person>
    <person id="ped87" depart="19.29" type="ped_pedestrian">
        <walk from="-696763621#0" to="-887612165#1"/>
    </person>
    <person id="ped88" depart="19.51" type="ped_pedestrian">
        <walk from="1085817470#0" to="-26126659#1"/>
    </person>
    <person id="ped89" depart="19.73" type="ped_pedestrian">
        <walk from="26675235#0" to="1073510208"/>
    </person>
    <person id="ped90" depart="19.96" type="ped_pedestrian">
        <walk from="947924360" to="294165933#3"/>
    </person>
    <person id="ped91" depart="20.18" type="ped_pedestrian">
        <walk from="700723683#4" to="142956152#4"/>
    </person>
    <person id="ped92" depart="20.40" type="ped_pedestrian">
        <walk from="-170076859#0" to="376087200#3"/>
    </person>
    <person id="ped93" depart="20.62" type="ped_pedestrian">
        <walk from="310339641#0" to="113505487#5"/>
    </person>
    <person id="ped94" depart="20.84" type="ped_pedestrian">
        <walk from="612691094#2" to="347970989#1"/>
    </person>
    <person id="ped95" depart="21.06" type="ped_pedestrian">
        <walk from="666146052#0" to="-934315774"/>
    </person>
    <person id="ped96" depart="21.29" type="ped_pedestrian">
        <walk from="438194702" to="-513698604#0"/>
    </person>
    <person id="ped97" depart="21.51" type="ped_pedestrian">
        <walk from="-62183331#1" to="-171870401"/>
    </person>
    <person id="ped98" depart="21.73" type="ped_pedestrian">
        <walk from="904605010#1" to="22805466#6"/>
    </person>
    <person id="ped99" depart="21.95" type="ped_pedestrian">
        <walk from="-115698799" to="154993447#3"/>
    </person>
    <person id="ped100" depart="22.17" type="ped_pedestrian">
        <walk from="113757633#1" to="1024242332#0"/>
    </person>
    <person id="ped101" depart="22.39" type="ped_pedestrian">
        <walk from="189060368#4" to="426932556#1"/>
    </person>
    <person id="ped102" depart="22.62" type="ped_pedestrian">
        <walk from="21970819#2" to="-22805466#5"/>
    </person>
    <person id="ped103" depart="22.84" type="ped_pedestrian">
        <walk from="696763596#0" to="28640901#0"/>
    </person>
    <person id="ped104" depart="23.06" type="ped_pedestrian">
        <walk from="171888259#1" to="113755794"/>
    </person>
    <person id="ped105" depart="23.28" type="ped_pedestrian">
        <walk from="142956247#6" to="254656138#2"/>
    </person>
    <person id="ped106" depart="23.50" type="ped_pedestrian">
        <walk from="-32299622#0" to="945870929#0"/>
    </person>
    <person id="ped107" depart="23.72" type="ped_pedestrian">
        <walk from="-529581808" to="288875939"/>
    </person>
    <person id="ped108" depart="23.95" type="ped_pedestrian">
        <walk from="976307736#1" to="882278370"/>
    </person>
    <person id="ped109" depart="24.17" type="ped_pedestrian">
        <walk from="182933949#0" to="-311383257"/>
    </person>
    <person id="ped110" depart="24.39" type="ped_pedestrian">
        <walk from="729398141" to="22804817#3"/>
    </person>
    <person id="ped111" depart="24.61" type="ped_pedestrian">
        <walk from="544212762#0" to="24592208#2"/>
    </person>
    <person id="ped112" depart="24.83" type="ped_pedestrian">
        <walk from="288881197" to="133135222"/>
    </person>
    <person id="ped113" depart="25.05" type="ped_pedestrian">
        <walk from="886789572#0" to="244050306#1"/>
    </person>
    <person id="ped114" depart="25.28" type="ped_pedestrian">
        <walk from="107991784#1" to="666146044"/>
    </person>
    <person id="ped115" depart="25.50" type="ped_pedestrian">
        <walk from="241232098#1" to="700570327"/>
    </person>
    <person id="ped116" depart="25.72" type="ped_pedestrian">
        <walk from="32890507" to="993848246"/>
    </person>
    <person id="ped117" depart="25.94" type="ped_pedestrian">
        <walk from="27435148#0" to="115848468#0"/>
    </person>
    <person id="ped118" depart="26.16" type="ped_pedestrian">
        <walk from="173026674#2" to="113757630#2"/>
    </person>
    <person id="ped119" depart="26.39" type="ped_pedestrian">
        <walk from="-729399510#0" to="509258395#0"/>
    </person>
    <person id="ped120" depart="26.61" type="ped_pedestrian">
        <walk from="320695366#0" to="-964807501#1"/>
    </person>
    <person id="ped121" depart="26.83" type="ped_pedestrian">
        <walk from="440398492" to="700570334#0"/>
    </person>
    <person id="ped122" depart="27.05" type="ped_pedestrian">
        <walk from="332821769#2" to="797006812"/>
    </person>
    <person id="ped123" depart="27.27" type="ped_pedestrian">
        <walk from="261603003#1" to="173073792#0"/>
    </person>
    <person id="ped124" depart="27.49" type="ped_pedestrian">
        <walk from="431796769#0" to="-50110383#4"/>
    </person>
    <person id="ped125" depart="27.72" type="ped_pedestrian">
        <walk from="189046377#0" to="943608846#1"/>
    </person>
    <person id="ped126" depart="27.94" type="ped_pedestrian">
        <walk from="-79289293#1" to="133140161#1"/>
    </person>
    <person id="ped127" depart="28.16" type="ped_pedestrian">
        <walk from="320695368" to="32076515#2"/>
    </person>
    <person id="ped128" depart="28.38" type="ped_pedestrian">
        <walk from="976581520#1" to="111027976#2"/>
    </person>
    <person id="ped129" depart="28.60" type="ped_pedestrian">
        <walk from="475921559#2" to="545294506#0"/>
    </person>
    <person id="ped130" depart="28.82" type="ped_pedestrian">
        <walk from="436954800" to="740527161#0"/>
    </person>
    <person id="ped131" depart="29.05" type="ped_pedestrian">
        <walk from="373394194" to="87528005#2"/>
    </person>
    <person id="ped132" depart="29.27" type="ped_pedestrian">
        <walk from="55488349#4" to="-22805347#0"/>
    </person>
    <person id="ped133" depart="29.49" type="ped_pedestrian">
        <walk from="942514991#1" to="686060610#1"/>
    </person>
    <person id="ped134" depart="29.71" type="ped_pedestrian">
        <walk from="125454680#3" to="666146051#0"/>
    </person>
    <person id="ped135" depart="29.93" type="ped_pedestrian">
        <walk from="460505838#2" to="32889857#4"/>
    </person>
    <person id="ped136" depart="30.15" type="ped_pedestrian">
        <walk from="703012666#0" to="902320242#1"/>
    </person>
    <person id="ped137" depart="30.38" type="ped_pedestrian">
        <walk from="309596835#1" to="883601713#2"/>
    </person>
    <person id="ped138" depart="30.60" type="ped_pedestrian">
        <walk from="216542869#6" to="143058864"/>
    </person>
    <person id="ped139" depart="30.82" type="ped_pedestrian">
        <walk from="922940810" to="-113757550#0"/>
    </person>
    <person id="ped140" depart="31.04" type="ped_pedestrian">
        <walk from="-159381891" to="61426079#1"/>
    </person>
    <person id="ped141" depart="31.26" type="ped_pedestrian">
        <walk from="797006812" to="113757690#6"/>
    </person>
    <person id="ped142" depart="31.48" type="ped_pedestrian">
        <walk from="-102392482#1" to="786356786"/>
    </person>
    <person id="ped143" depart="31.71" type="ped_pedestrian">
        <walk from="-436163580" to="-356131611#1"/>
    </person>
    <person id="ped144" depart="31.93" type="ped_pedestrian">
        <walk from="438249641" to="-111028176"/>
    </person>
    <person id="ped145" depart="32.15" type="ped_pedestrian">
        <walk from="1005726543" to="113757647#3"/>
    </person>
    <person id="ped146" depart="32.37" type="ped_pedestrian">
        <walk from="586426031#1" to="261603003#12"/>
    </person>
    <person id="ped147" depart="32.59" type="ped_pedestrian">
        <walk from="592195145#1" to="194922696"/>
    </person>
    <person id="ped148" depart="32.82" type="ped_pedestrian">
        <walk from="939544687" to="-143383257"/>
    </person>
    <person id="ped149" depart="33.04" type="ped_pedestrian">
        <walk from="19846304#2" to="142956185#6"/>
    </person>
    <person id="ped150" depart="33.26" type="ped_pedestrian">
        <walk from="491113501#3" to="217299932"/>
    </person>
    <person id="ped151" depart="33.48" type="ped_pedestrian">
        <walk from="265228225" to="171870398#8"/>
    </person>
    <person id="ped152" depart="33.70" type="ped_pedestrian">
        <walk from="347354086#0" to="-25927696#1"/>
    </person>
    <person id="ped153" depart="33.92" type="ped_pedestrian">
        <walk from="426932547" to="621786646#2"/>
    </person>
    <person id="ped154" depart="34.15" type="ped_pedestrian">
        <walk from="114614710" to="171870398#2"/>
    </person>
    <person id="ped155" depart="34.37" type="ped_pedestrian">
        <walk from="693173370#1" to="305131760#3"/>
    </person>
    <person id="ped156" depart="34.59" type="ped_pedestrian">
        <walk from="34171854#3" to="122836255#1"/>
    </person>
    <person id="ped157" depart="34.81" type="ped_pedestrian">
        <walk from="-274492658" to="756877731#1"/>
    </person>
    <person id="ped158" depart="35.03" type="ped_pedestrian">
        <walk from="754523318#3" to="950397860"/>
    </person>
    <person id="ped159" depart="35.25" type="ped_pedestrian">
        <walk from="700344038#0" to="356935856#1"/>
    </person>
    <person id="ped160" depart="35.48" type="ped_pedestrian">
        <walk from="892616194#1" to="723504009#0"/>
    </person>
    <person id="ped161" depart="35.70" type="ped_pedestrian">
        <walk from="1056371868#1" to="-667481411#2"/>
    </person>
    <person id="ped162" depart="35.92" type="ped_pedestrian">
        <walk from="128553095#2" to="547935225#0"/>
    </person>
    <person id="ped163" depart="36.14" type="ped_pedestrian">
        <walk from="153418566#3" to="1085846513#1"/>
    </person>
    <person id="ped164" depart="36.36" type="ped_pedestrian">
        <walk from="45245022#0" to="-123272224#2"/>
    </person>
    <person id="ped165" depart="36.58" type="ped_pedestrian">
        <walk from="142821990#0" to="34150351"/>
    </person>
    <person id="ped166" depart="36.81" type="ped_pedestrian">
        <walk from="103799859#3" to="113757686#8"/>
    </person>
    <person id="ped167" depart="37.03" type="ped_pedestrian">
        <walk from="-16941461#2" to="791437528"/>
    </person>
    <person id="ped168" depart="37.25" type="ped_pedestrian">
        <walk from="-118237688#0" to="-111027933#3"/>
    </person>
    <person id="ped169" depart="37.47" type="ped_pedestrian">
        <walk from="113757657#0" to="676519310#0"/>
    </person>
    <person id="ped170" depart="37.69" type="ped_pedestrian">
        <walk from="75308478#0" to="1014292945"/>
    </person>
    <person id="ped171" depart="37.91" type="ped_pedestrian">
        <walk from="114614841#4" to="113757821"/>
    </person>
    <person id="ped172" depart="38.14" type="ped_pedestrian">
        <walk from="55450472" to="700349276#0"/>
    </person>
    <person id="ped173" depart="38.36" type="ped_pedestrian">
        <walk from="636563915#2" to="223098602#1"/>
    </person>
    <person id="ped174" depart="38.58" type="ped_pedestrian">
        <walk from="60578912#4" to="610881070#0"/>
    </person>
    <person id="ped175" depart="38.80" type="ped_pedestrian">
        <walk from="31140917#8" to="39549783#0"/>
    </person>
    <person id="ped176" depart="39.02" type="ped_pedestrian">
        <walk from="369262410#6" to="79289293#1"/>
    </person>
    <person id="ped177" depart="39.25" type="ped_pedestrian">
        <walk from="-135922675" to="240365424#1"/>
    </person>
    <person id="ped178" depart="39.47" type="ped_pedestrian">
        <walk from="113753846" to="171607770#0"/>
    </person>
    <person id="ped179" depart="39.69" type="ped_pedestrian">
        <walk from="-138710830#1" to="728854111#2"/>
    </person>
    <person id="ped180" depart="39.91" type="ped_pedestrian">
        <walk from="-173073791#0" to="79289293#1"/>
    </person>
    <person id="ped181" depart="40.13" type="ped_pedestrian">
        <walk from="865501277#2" to="170515996"/>
    </person>
    <person id="ped182" depart="40.35" type="ped_pedestrian">
        <walk from="113757628#1" to="194922692#5"/>
    </person>
    <person id="ped183" depart="40.58" type="ped_pedestrian">
        <walk from="-26500611#6" to="867672903#1"/>
    </person>
    <person id="ped184" depart="40.80" type="ped_pedestrian">
        <walk from="16277376#0" to="25957514#5"/>
    </person>
    <person id="ped185" depart="41.02" type="ped_pedestrian">
        <walk from="663641857#1" to="42103754#0"/>
    </person>
    <person id="ped186" depart="41.24" type="ped_pedestrian">
        <walk from="113758215" to="32889768#0"/>
    </person>
    <person id="ped187" depart="41.46" type="ped_pedestrian">
        <walk from="-42104617#5" to="118237945#0"/>
    </person>
    <person id="ped188" depart="41.68" type="ped_pedestrian">
        <walk from="900203178#3" to="113753842"/>
    </person>
    <person id="ped189" depart="41.91" type="ped_pedestrian">
        <walk from="125452940#0" to="125452946#1"/>
    </person>
    <person id="ped190" depart="42.13" type="ped_pedestrian">
        <walk from="-666368121" to="-881213532#1"/>
    </person>
    <person id="ped191" depart="42.35" type="ped_pedestrian">
        <walk from="914276243#1" to="20796786"/>
    </person>
    <person id="ped192" depart="42.57" type="ped_pedestrian">
        <walk from="-17679815#0" to="75307332"/>
    </person>
    <person id="ped193" depart="42.79" type="ped_pedestrian">
        <walk from="131655069#1" to="-551645547"/>
    </person>
    <person id="ped194" depart="43.01" type="ped_pedestrian">
        <walk from="728854105" to="629099019#3"/>
    </person>
    <person id="ped195" depart="43.24" type="ped_pedestrian">
        <walk from="690487692" to="-588961291#2"/>
    </person>
    <person id="ped196" depart="43.46" type="ped_pedestrian">
        <walk from="4709301#0" to="1005297004"/>
    </person>
    <person id="ped197" depart="43.68" type="ped_pedestrian">
        <walk from="16941913#0" to="1087364930#3"/>
    </person>
    <person id="ped198" depart="43.90" type="ped_pedestrian">
        <walk from="59248405" to="170076859#1"/>
    </person>
    <person id="ped199" depart="44.12" type="ped_pedestrian">
        <walk from="266548786#3" to="113753841#1"/>
    </person>
    <person id="ped200" depart="44.34" type="ped_pedestrian">
        <walk from="161388407#1" to="912127053"/>
    </person>
    <person id="ped201" depart="44.57" type="ped_pedestrian">
        <walk from="118237903#2" to="-113203113#0"/>
    </person>
    <person id="ped202" depart="44.79" type="ped_pedestrian">
        <walk from="426202068" to="666146093#1"/>
    </person>
    <person id="ped203" depart="45.01" type="ped_pedestrian">
        <walk from="-397490603#1" to="108864362#1"/>
    </person>
    <person id="ped204" depart="45.23" type="ped_pedestrian">
        <walk from="724059562" to="50110391#8"/>
    </person>
    <person id="ped205" depart="45.45" type="ped_pedestrian">
        <walk from="-28420784#0" to="1096846047#0"/>
    </person>
    <person id="ped206" depart="45.68" type="ped_pedestrian">
        <walk from="173096077#1" to="-282120686#0"/>
    </person>
    <person id="ped207" depart="45.90" type="ped_pedestrian">
        <walk from="153418554#1" to="361293047#0"/>
    </person>
    <person id="ped208" depart="46.12" type="ped_pedestrian">
        <walk from="1010070589#1" to="143563999#8"/>
    </person>
    <person id="ped209" depart="46.34" type="ped_pedestrian">
        <walk from="951538593" to="-159381847#1"/>
    </person>
    <person id="ped210" depart="46.56" type="ped_pedestrian">
        <walk from="261603003#12" to="240365424#1"/>
    </person>
    <person id="ped211" depart="46.78" type="ped_pedestrian">
        <walk from="974593792" to="295150716#6"/>
    </person>
    <person id="ped212" depart="47.01" type="ped_pedestrian">
        <walk from="139084429#2" to="189060001#3"/>
    </person>
    <person id="ped213" depart="47.23" type="ped_pedestrian">
        <walk from="55488356#3" to="373394195#0"/>
    </person>
    <person id="ped214" depart="47.45" type="ped_pedestrian">
        <walk from="28142577#2" to="696763594#1"/>
    </person>
    <person id="ped215" depart="47.67" type="ped_pedestrian">
        <walk from="38508303#3" to="692764474#0"/>
    </person>
    <person id="ped216" depart="47.89" type="ped_pedestrian">
        <walk from="255458159#1" to="976283851"/>
    </person>
    <person id="ped217" depart="48.11" type="ped_pedestrian">
        <walk from="602745210" to="-749826430#5"/>
    </person>
    <person id="ped218" depart="48.34" type="ped_pedestrian">
        <walk from="125302412#3" to="651146539"/>
    </person>
    <person id="ped219" depart="48.56" type="ped_pedestrian">
        <walk from="226878476#0" to="887939030#1"/>
    </person>
    <person id="ped220" depart="48.78" type="ped_pedestrian">
        <walk from="55450465#1" to="-184711294#2"/>
    </person>
    <person id="ped221" depart="49.00" type="ped_pedestrian">
        <walk from="28142574#10" to="113757625#2"/>
    </person>
    <person id="ped222" depart="49.22" type="ped_pedestrian">
        <walk from="-191939559#1" to="438196818#0"/>
    </person>
    <person id="ped223" depart="49.44" type="ped_pedestrian">
        <walk from="-171870399" to="39700409"/>
    </person>
    <person id="ped224" depart="49.67" type="ped_pedestrian">
        <walk from="125453476#0" to="676231782#1"/>
    </person>
    <person id="ped225" depart="49.89" type="ped_pedestrian">
        <walk from="651548884#3" to="-113758234#2"/>
    </person>
    <person id="ped226" depart="50.11" type="ped_pedestrian">
        <walk from="125454701#2" to="133135218#0"/>
    </person>
    <person id="ped227" depart="50.33" type="ped_pedestrian">
        <walk from="313994474#5" to="347354078#3"/>
    </person>
    <person id="ped228" depart="50.55" type="ped_pedestrian">
        <walk from="32076502" to="26500560#1"/>
    </person>
    <person id="ped229" depart="50.77" type="ped_pedestrian">
        <walk from="564143311#0" to="22804851#0"/>
    </person>
    <person id="ped230" depart="51.00" type="ped_pedestrian">
        <walk from="768676712" to="171607771#1"/>
    </person>
    <person id="ped231" depart="51.22" type="ped_pedestrian">
        <walk from="27993674#4" to="859790809#3"/>
    </person>
    <person id="ped232" depart="51.44" type="ped_pedestrian">
        <walk from="889162050#1" to="39701193#3"/>
    </person>
    <person id="ped233" depart="51.66" type="ped_pedestrian">
        <walk from="291623201" to="356367779"/>
    </person>
    <person id="ped234" depart="51.88" type="ped_pedestrian">