<?xml version="1.0" encoding="UTF-8"?>
<routes>
    <!-- Noncalibrated vehicle that is used on line #11 id="trolleybus_pilsen_11" -->
    <vType id="trolleybus" 
           accel="0.8" decel="0.5" emergencyDecel="1.6" length="12" maxSpeed="14.0" 
           speedFactor="normc(0.8,0.0,0.5,1.1)" sigma="0" minGap="2.5" color="0,1,0" 
           emissionClass="Energy/unknown"  vClass="bus" guiShape="bus/trolley">
        <!-- maxSpeed restriction due to energy consumption --> 
      <param key="maximumBatteryCapacity" value="46000"/>
      <param key="maximumPower" value="160000"/>
      <param key="overheadWireChargingPower" value="55000"/>
      <param key="vehicleMass" value="13000"/> 
      <param key="frontSurfaceArea" value="7.7"/>
      <param key="airDragCoefficient" value="0.6746"/> <!-- new Rab SELC data - lsm fit-->
      <param key="internalMomentOfInertia" value="585"/> <!-- 0.5*13000*0.061 = 397; default 10-->
      <param key="radialDragCoefficient" value="0.5"/>
      <param key="rollDragCoefficient" value="0.0096"/> <!-- new Rab SELC data - lsm fit-->
      <param key="constantPowerIntake" value="4580"/>  <!-- calibrated for line #12 data -->
      <param key="propulsionEfficiency" value="0.85"/>
      <param key="recuperationEfficiency" value="0.85"/>
      <param key="actualBatteryCapacity" value="46000"/>
      <param key="has.elechybrid.device" value="true"/>
    </vType>
    
    <!-- Calibrated vehicle that is used on line #12 -->
    <vType id="trolleybus_pilsen_12" 
           accel="0.8" decel="0.5" emergencyDecel="1.6" length="12" maxSpeed="14.0" 
           speedFactor="normc(0.8,0.0,0.5,1.1)" sigma="0" minGap="2.5" color="0,1,0" 
           emissionClass="Energy/unknown"  vClass="bus" guiShape="bus/trolley">
        <!-- maxSpeed restriction due to energy consumption --> 
      <param key="maximumBatteryCapacity" value="46000"/>
      <param key="maximumPower" value="160000"/>
      <param key="overheadWireChargingPower" value="55000"/>
      <param key="vehicleMass" value="13000"/> 
      <param key="frontSurfaceArea" value="7.7"/>
      <param key="airDragCoefficient" value="0.6746"/> <!-- new Rab SELC data - lsm fit-->
      <param key="internalMomentOfInertia" value="585"/> <!-- 0.5*13000*0.061 = 397; default 10-->
      <param key="radialDragCoefficient" value="0.5"/>
      <param key="rollDragCoefficient" value="0.0096"/> <!-- new Rab SELC data - lsm fit-->
      <param key="constantPowerIntake" value="4580"/>  <!-- calibrated for line #12 data -->
      <param key="propulsionEfficiency" value="0.85"/>
      <param key="recuperationEfficiency" value="0.85"/>
      <param key="actualBatteryCapacity" value="46000"/>
      <param key="has.elechybrid.device" value="true"/>
    </vType>
    
    <!-- Calibrated vehicle that is used on line #13 -->
    <vType id="trolleybus_pilsen_13" 
           accel="0.8" decel="0.5" emergencyDecel="1.6" length="12" maxSpeed="14.0" 
           speedFactor="normc(0.8,0.0,0.5,1.1)" sigma="0" minGap="2.5" color="0,1,0" 
           emissionClass="Energy/unknown"  vClass="bus" guiShape="bus/trolley">
        <!-- maxSpeed restriction due to energy consumption --> 
      <param key="maximumBatteryCapacity" value="46000"/>
      <param key="maximumPower" value="160000"/>
      <param key="overheadWireChargingPower" value="55000"/>
      <param key="vehicleMass" value="13000"/> 
      <param key="frontSurfaceArea" value="7.7"/>
      <param key="airDragCoefficient" value="0.6746"/> <!-- new Rab SELC data - lsm fit -->
      <param key="internalMomentOfInertia" value="585"/> <!-- 0.5*13000*0.061 = 397; default 10 -->
      <param key="radialDragCoefficient" value="0.5"/>
      <param key="rollDragCoefficient" value="0.0096"/> <!-- new Rab SELC data - lsm fit -->
      <param key="constantPowerIntake" value="7460"/> <!-- calibrated for line #13 data -->
      <param key="propulsionEfficiency" value="0.85"/>
      <param key="recuperationEfficiency" value="0.85"/>
      <param key="actualBatteryCapacity" value="46000"/>
      <param key="has.elechybrid.device" value="true"/>
    </vType>
</routes>

