<?xml version="1.0" encoding="UTF-8"?>

<!-- generated on 2022-10-05 13:06:41.332023 by randomTrips.py v1_14_1+1394-3c051fc02c9
<configuration>
    <end value="3600"/>
    <fringe-factor value="20.0"/>
    <fringe-start-attributes value="departSpeed=&quot;max&quot;"/>
    <min-distance value="600.0"/>
    <net-file value="palmovka_cakovice_v2.net.xml"/>
    <period value="4.762889"/>
    <trip-attributes value="departLane=&quot;best&quot;"/>
    <output-trip-file value="palmovka_cakovice_v2.bus.trips.xml"/>
    <prefix value="bus"/>
    <validate value="True"/>
    <vclass value="bus"/>
    <vehicle-class value="bus"/>
</configuration>
-->

<!-- generated on 2022-10-05 13:06:40 by Eclipse SUMO duarouter Version v1_14_1+1394-3c051fc02c9
<configuration xmlns:xsi="http://www.w3.org/2001/XMLSchema-instance" xsi:noNamespaceSchemaLocation="http://sumo.dlr.de/xsd/duarouterConfiguration.xsd">

    <input>
        <net-file value="palmovka_cakovice_v2.net.xml"/>
        <route-files value="palmovka_cakovice_v2.bus.trips.xml"/>
    </input>

    <output>
        <output-file value="routes.rou.xml"/>
        <alternatives-output value="NUL"/>
    </output>

    <time>
        <begin value="0"/>
        <end value="3600"/>
    </time>

    <report>
        <no-warnings value="true"/>
        <ignore-errors value="true"/>
        <no-step-log value="true"/>
    </report>

</configuration>
-->

<routes xmlns:xsi="http://www.w3.org/2001/XMLSchema-instance" xsi:noNamespaceSchemaLocation="http://sumo.dlr.de/xsd/routes_file.xsd">
    <vType id="bus_bus" vClass="bus"/>
    <vehicle id="bus0" type="bus_bus" depart="0.00" departLane="best" departSpeed="max">
        <route edges="17098842#5 500534480 -133090109#3 -133090109#2 -133090109#1 -133090109#0 133090114#0 133090114#1 133090114#2 828551154 593508728 463043689#0 463043689#1 -129043108#5 -129043108#4 -129043108#3 -129043108#2 -129043108#1 -129043108#0 -538784306 -12353088 688705425 12353085#0 688705424 4048667 858659287 217859793 922940805#0 922940805#1 131765100 493624653 131765096#1 129089904#0 129089904#1 922940807 922940808#0 922940808#1 922940806#0 -133140148#2 -133140148#0 -173074320 -160567761#3 -160567761#2 -160567761#1 -160567761#0 133140151#0 133140151#1 133140151#3 133140151#4 11987481#0 11987481#1 598540914 -133140159#2 -133140159#1 -133140159#0 -11987530#0"/>
    </vehicle>
    <vehicle id="bus1" type="bus_bus" depart="4.76" departLane="best">
        <route edges="-286249439#2 -286249439#1 -286249439#0 -25958159#3 -25958159#2 -25958159#1 -25958159#0 25958159#0 25958159#1 25958159#2 25958159#3 286249439#0 286249439#1 286249439#2 25958151#0 25958151#1 596103404#0 596103404#1 -27341265#1 -27341265#0 27341266#0 27341266#1 27341266#2 27341266#3 27341266#4 27341266#5 118387920#2 118387920#3 -4709081#2 -4709081#1 757446761 757446765#1 757446765#2 118387907#0 118387907#1 757443937 757443942 757443938 4261229#0 4261229#1 20334535#1 20334537#1 85354321#0 22897456 479544432 133090128#0 116999346#0 116999346#1 22897457#0 22897457#1 128565804#0 128565804#1 4052055 128933610#0 -4315493#5 -4315493#4 -4315493#3 -4341537#3 -4341537#2 -4341537#1"/>
    </vehicle>
    <vehicle id="bus2" type="bus_bus" depart="9.53" departLane="best" departSpeed="max">
        <route edges="27806736#6 821229578#3 821229578#4 821229586 821229585#1 223098439 151509445#0 151509445#1 223098437#0 223098437#1 27994515 902624886 345710025 345276758#0 345276758#2 85354319#1 479544434 85354317 479544435#0 479544438 757443935 757443934 -757443937 -118387907#2 -118387907#0 757446764#0 757446764#1 757446762 621790530#0 -8134337#1 -8134337#0 4672501#0 4672501#1 596103405 118387910#0 118387910#2 118387910#3 128553081#0 128553081#1 128553081#2 133144148 4929993#0 4929993#1 591815054 366863480 366863504 366863431 366863489#0 366863489#1 366863493 366863516 366863455 366863470 366863519 366863441 433545660 366863508 27634191 366863552 851522232 14008681 851522231#0 851522231#1 935616349 261600163 13355419 935616350 14008895 14009010 312313737 312313741 13354544 312313736 312833290"/>
    </vehicle>
    <vehicle id="bus3" type="bus_bus" depart="14.29" departLane="best">
        <route edges="515250288#1 515250288#2 -16614512#2 -16614512#1 -16616143#1 -16616143#0 -173068139 -41385098#1 -41385098#0 173068137#2 173068137#3 173068137#4 8614214#0 8614214#1 -305907254 -929580063 -142247589#3 -142247589#2 -142247589#1 -142247589#0 -138415900 -365267526#12 -365267526#11 -365267526#9 -365267526#8 -365267526#7 -365267526#1 -902624882#6 -902624882#5 -902624882#4 -902624882#3 -902624882#2 -902624882#1 -334029973#1 -334029973#0 -334029970 -902624883 -334029978#2 -334029978#1 -334029978#0 -334029966#0 -334029968 -218337500 -184988921#1 -184988921#0 -167090835 -143572267 -143572269 -143572270#0 -1009075463 -12247150#2 -12247150#1 -12247150#0 463043689#1 828551153#0 -4079619#6 -4079619#5 -4079619#4 -26840597#0 -15430913#7 -15430913#6 -15430913#5 -15430913#4 -15430913#3 -15430913#2 -15430913#1 -16237233#1 -16237233#0 -4079616 143058818#0 143058818#1 143058818#2 475040599 79263891 141963704 31770065#0 22897412#0 22897412#1 128675488#0 107577524#1 943834217 943834218#0 943834218#2 -1067710444#1 -218339216#3 -218339216#2 -218339216#1 -218339216#0 345306203#1 -946316123 -345306199#6 -16239222#3 -16239222#2 -16239222#1"/>
    </vehicle>
    <vehicle id="bus4" type="bus_bus" depart="19.05" departLane="best">
        <route edges="-640915332#2 -640915332#1 640915332#1 640915332#2 -11989055#0 22755983#0 22755983#1 22755983#2 22755983#3 22755983#4 22755983#5 22755983#6 22755983#7 22755983#8 22755983#9 403462365 143952436#0 143952436#1 160574779#0 160574779#2 160574779#3 160574779#5 160574778 201722834 160576509 201722836#1 201722836#2 598540912#0 598540912#1 160567761#0 160567761#1 160567761#2 160567761#3 173074320 133140148#0 133140148#1 19848860#1 19848860#2 19848860#3 887612167 887612166 345703954#0 345703954#2 173073779 131765098#0 131765098#1 217859788 217859790 217859792 4019777 979871680 688705421 688705420 688705422#0 12353018#0 4018010#1 4018010#2 4018010#3 4048669#1 -12481082#1 -12481082#0 -12460985#10 -12460985#9 -12460985#8"/>
    </vehicle>
    <vehicle id="bus5" type="bus_bus" depart="23.81" departLane="best" departSpeed="max">
        <route edges="-248991197#1 -248991197#0 -503831062#1 -503831062#0 -26517582 443928878 503831064#0 -550889287#3 -550889287#2 -550889287#1 -550889287#0 -11988393#2 -11988393#1 -11988393#0 -945418660 4558721 531490208 531490205 531490203 4558709#1 531490202 531490210 531490209 531490207#0 531490207#1 531490211#0 531490211#1 593546513 531490204 217850418 217850414 88366603 593546516 813899239 713788672 4558712 813899237 899260463 832272499#0 832272499#1 899260462 640912120#0 640912120#1 908464859 993478690 22755983#0 22755983#1 22755983#2 22755983#3 22755983#4 22755983#5 22755983#6 22755983#7 22755983#8 22755983#9 10475923#0 10475923#1 160567765#1 160567765#2 160567765#3 160567765#4 307732080 143563981 143563982#0 143563982#1 143563982#2 8614225#0 8614225#1 41385093 16615455#1 16615455#2"/>
    </vehicle>
    <vehicle id="bus6" type="bus_bus" depart="28.58" departLane="best" departSpeed="max">
        <route edges="-1086426251#2 -1086426251#1 -1086426251#0 10710851#1 10710851#2 598540915#0 598540915#1 598540915#2 10848510#2 10848510#4 10848510#5 10848510#6 10848510#7 15579899#0 10711034#1 -143952436#1 -143952436#0 -403462365 10475923#0 10475923#1 160567765#1 160567765#2 160567765#3 160567765#4 307732080 143563981 143563982#0 143563982#1 143563982#2 8614225#0 8614225#1 41385093 143952439#0 143952439#1 882373842#0 882373842#1 345710027#0 345710027#1 345710027#2 -345710027#2"/>
    </vehicle>
    <vehicle id="bus7" type="bus_bus" depart="33.34" departLane="best" departSpeed="max">
        <route edges="179824914 -128553055 -642239584#1 -642239584#0 -34148247 4929993#0 4929993#1 591815054 366863480 366863504 366863431 366863489#0 366863489#1 366863493 366863516 366863455 366863470 366863519 366863441 433545660 366863508 27634191 366863552 851522232 14008681 851522231#0 851522231#1 19835927 19835782#0 19835782#1 202514549#1"/>
    </vehicle>
    <vehicle id="bus8" type="bus_bus" depart="38.10" departLane="best">
        <route edges="-25660181#2 -25660181#1 -25660181#0 16944206 -10710456#0 -531488935 -531488940 -194101580 -531488934 -531488941#1 -531488941#0 -126134871 -194101579 -88366575 88366603 217850416 -531490204 -593546513 -531490211#1 -531490211#0 -531490207#1 -531490207#0 -531490209 -531490210 -531490202 -4558709#1 -4558709#0 -531490205 -531490208 217850419 945418667 595866513#0 595866513#1 4558722#0 4558722#1 4558722#2 4558722#3 593758916#0 593758916#2 593758916#3 16497962#0 16497962#1 16497962#2 16497962#4 16497962#5 598209323 184154249#0 184154249#1 184154249#2 184154249#3 184154249#4 22738778#0 22738778#1 22738778#4 22738778#5 22738778#6 308358612 308358613 716718730#3 716718730#4 716718730#5 15805095#0 15805095#1 15805095#2 696203612#0 696203612#1 696664240 593546512#0 593546512#1 593546512#2 593546512#3 978168252#0 978168252#1 23230322#7"/>
    </vehicle>
    <vehicle id="bus10" type="bus_bus" depart="47.63" departLane="best">
        <route edges="394912797#3 567020093 332829373#0 332829373#1 32886755 366863477 366863512 366863497 366863424 366863473 366863524 129501930 15230388 366863449 4882941 757531001 474039602#1 474039608 372155613#0 372155613#1 372155613#2 474039599 474039588 474039582 462519335 372155614 8134336#1 8134336#2 477074801 169706088#0 169706088#1 744544926 4709082 118387928 705472490 705472489#0 705472489#1 61236818#0 61236818#1 34167947#0 34167947#1 442189491#0 442189491#1 118387903#0 118387903#1 -545025877 621786636#0 621786636#1 621786636#2 621786636#3 621786638#1 621786638#3 621786638#4 118387925#1 118387925#2 145397814#1 962942445 545273055 531057020#0 962942447 545287627#0 545287629#0 545287629#1 545287629#2 545287630#0 545287630#1 545287631#0 545287631#1 545273066 545273068 545273069#1 13124427#0 13124427#1 27557809#0 27557809#1 261947568#0 51372604 403602056#0 403602056#2 690750611 4709052#0 4709052#1 690750612#0 690750612#1 173131140 -173131140 33764387#0 33764387#1"/>
    </vehicle>
    <vehicle id="bus11" type="bus_bus" depart="52.39" departLane="best" departSpeed="max">
        <route edges="-436163584#3 -436163584#2 -436163584#1 592440666#1 -4709074#5 -4709074#4 -4709074#2 -4709074#1 -879373543 -278474626#1 -278474626#0 -532082994 -291623199#2 -291623199#1 -291623198 -1005511827#1 -1005511827#0 -532082996 -1005511828 -31728010#2 -31728010#1 -31728010#0 12353015#2 623095587#0 623095590#1 623095596 623095597#1 623095602 218339204#1 218339204#3 979871686#1 979871686#2 13130850#0 13130850#1 13130850#2 13130850#3 13130850#4 13130850#5 979871687#0 979871687#1 688705423#1 143952410#0 688705424 4048667 858659287 217859793 922940805#0 922940805#1 131765100 493624653 131765096#1 129089904#0 129089904#1 922940807 922940808#0 922940808#1 922940806#0 -133140148#2 -133140148#0 -173074320 -160567761#3 -160567761#2 -160567761#1 -160567761#0 133140151#0 133140151#1 133140151#3 133140151#4 -25660525#1 -25660525#0"/>
    </vehicle>
    <vehicle id="bus12" type="bus_bus" depart="57.15" departLane="best">
        <route edges="8134336#2 8134336#3 8134336#4 679077833#1 679077833#2 679077833#3 679077833#4 846857583 8134337#0 8134337#1 479544444#1 479544442 479544441#0 479544441#1 757446765#0 757446765#1 757446765#2 118387907#0 118387907#1 757443937 757443942 757443938 4261229#0 4261229#1 20334535#1 20334537#1 85354321#0 22897456 479544432 133090128#0 116999346#0 116999346#1 22897457#0 22897457#1 128565804#0 128565804#1 666151135#1 454759832#1 454759832#2 105596379#0 4647736#4 4647736#5 4647736#6 14355294#0 14355294#1 14355294#2 14355294#4 14355294#5 14355294#6 131651130 4709061#1 4709061#3 4709061#4 4709061#5 102029788#2 -102029790#4 -102029790#3 -102029790#2 -102029790#1 -102029790#0 102029790#0 102029790#1 102029790#2"/>
    </vehicle>
    <vehicle id="bus13" type="bus_bus" depart="61.92" departLane="best" departSpeed="max">
        <route edges="-14615299#1 -14615299#0 61220180#0 426932535#0 426932535#1 34398218#9 309091012 -4648525#6 -4648525#5 -4648525#4 -4648525#3 -4648525#1 -4648525#0 -14614100#4 -14614100#3 -14614100#2 -14614100#1 -14614100#0 34398219 338492201#0 338492201#1 338492201#3 338492201#4 338492201#5 338492201#6 -550881714#5 -550881714#4 -550881714#3 -550881714#2 -550881714#1 -550881714#0 349884540#0 349884540#2 573981202#0 573981202#1 141190357#2 567020091 746628360 4820020 366863519 366863441 433545660 366863508 27634191 366863552 851522232 14008681 851522231#0 851522231#1 -261600164 -935616348 -550889287#3 -550889287#2 -550889287#1 -550889287#0 -11988393#2 -11988393#1 -11988393#0 -945418660 4558721 217850419 945418667 595866513#0 595866513#1 4558722#0 4558722#1 4558722#2 4558722#3 593758916#0 593758916#2 593758916#3 16497962#0 16497962#1 16497962#2 16497962#4 16497962#5 598209323 184154249#0 184154249#1 184154249#2 184154249#3 184154249#4 217850404#0 217850404#1 217850404#2 217850404#3 217850404#4 573971673#0 573971673#1 15676601#0 15676601#1 128359784#0 128359784#1 128359784#2 128359784#3 23230098#0 23230098#1 345276761#0 345276761#1 345276761#2 345276761#3 345276761#4 345276761#5 345276761#6 573966850#0 573966850#1 22393187#0 22393187#1 -173029848"/>
    </vehicle>
    <vehicle id="bus14" type="bus_bus" depart="66.68" departLane="best">
        <route edges="4558725#1 4558725#2 4558725#3 -593758916#2 -593758916#0 -4558722#3 -4558722#2 -4558722#1 -4558722#0 -595866513#1 -595866513#0 -945418667 217850415 217850417#0 217850417#1 4558721 531490208 531490205 531490203 4558709#1 531490202 531490210 531490209 531490207#0 531490207#1 531490211#0 531490211#1 593546513 531490204 217850418 217850414 88366575 194101579 126134871 531488941#0 531488941#1 531488934 194101580 531488940 531488935 531488939 531488936 78898222#1 135738856 586426035 135738854 135738849 135738853 135738857 135738852 135738855 586426037 135738859#0 135738859#1 135738860 135738851 135738861 922940812 133140156 19848860#1 19848860#2 19848860#3 887612167 887612166 345703954#0 345703954#2 173073779 131765098#0 131765098#1 217859788 12353023 332821760 332821759 332821758 332821761 332822224 332822225 332823194 253619892 253618316"/>
    </vehicle>
    <vehicle id="bus17" type="bus_bus" depart="80.97" departLane="best" departSpeed="max">
        <route edges="-50110079#12 -50110079#11 -50110079#10 -50110079#9 -4648153#3 -4648153#2 -4648153#1 -4648153#0 4648147#4 4648147#5 4648147#6 4648147#7 4648147#8 4648147#9 -50106174#2 -50106174#1 -4648146#4 -4648146#3 -4648146#2 -4648146#1 15805668#10 15805668#11 719605418 345306208#0 345306208#1 345306208#2 431796765#0 431796765#1 885719765#1 431796767#0 431796767#1 623095588#1 623095586 31728010#0 31728010#1 31728010#2 31728010#3 532082996 1005511827#0 1005511827#1 291623198 291623199#1 291623199#2 532082994 278474626#0 278474626#1 879373543 879373550 278474625 532082995 879373544#0 879373544#1 757443947 757443940 757443941#0 757443944 757443939 757443938 4261229#0 4261229#1 20334535#1 20334537#1 85354321#0 22897456 479544432 133090128#0 116999346#0 116999346#1 22897457#0 22897457#1 128565804#0 128565804#1 666151135#1 143368564#1 114314604#0 114314604#1 133090113#0 133090113#1 133090112 397490600#0 397490600#1 -175150004#3 -175150004#2 -175150004#1 -175150004#0 -35556291#1 -35556291#0 -35556290#1 -4709079 21494322 21494301"/>
    </vehicle>
    <vehicle id="bus18" type="bus_bus" depart="85.73" departLane="best" departSpeed="max">
        <route edges="427981605#0 427981605#1 427981605#2 427981609#4 427981599#1 427981599#2 427981599#3 427981599#4 427981599#5 427981599#6 427981599#7 427981599#8 427981599#9 427981599#10 427981599#11 -11989055#4 -11989055#3 -11989055#2 -11989055#1 -11989055#0 22755983#0 22755983#1 22755983#2 22755983#3 22755983#4 22755983#5 22755983#6 22755983#7 22755983#8 22755983#9 403462365 143952436#0 143952436#1 160574779#0 160574779#2 160574779#3 160574779#5 160574778 201722834 160576509 201722836#1 201722836#2 598540912#0 598540912#1 160567761#0 160567761#1 160567761#2 160567761#3 173074320 133140148#0 133140148#1 19848860#1 19848860#2 19848860#3 887612167 887612166 345703954#0 345703954#2 173073779 131765098#0 131765098#1 217859788 217859790 217859792 4019777 979871680 688705421 688705420 688705422#0 12353018#0 4018010#1 4018010#2 4018010#3 498862792#0 498862792#1 498862792#2 498862792#3 498862792#4 498862793#0 498862793#1 498862791#0 34398220#0 34398220#1 345306209#0 345306209#1 345306209#2 345306209#3 13867658#1 13867658#4 13867658#5 26083797#1"/>
    </vehicle>
    <vehicle id="bus19" type="bus_bus" depart="90.49" departLane="best" departSpeed="max">
        <route edges="4648504#0 4648504#1 426932534#0 426932534#1 426932534#2 426932534#3 426932534#4 -52733608#2 -52733608#1 -14615036#1 -14615036#0 143952422#0 143952422#1 143952422#2 143952422#3 143952422#4 143952422#5 143952422#6 143952422#7 143952422#8 143952422#9 345306206#0 345306206#1 345306206#2 345306206#3 345306206#4 345306206#5 345306206#6 345306206#7 345306206#8 345306206#9 345306206#10 345306206#11 349884542#0 218339204#1 218339204#3 979871686#1 979871686#2 13130850#0 13130850#1 13130850#2 13130850#3 13130850#4 13130850#5 979871687#0 979871687#1 688705423#1 143952410#0 688705424 4048667 858659287 217859793 922940805#0 922940805#1 131765100 493624653 131765096#1 129089904#0 129089904#1 922940807 922940808#0 922940808#1 922940806#0 128607206 133140157 -135738861 -135738851 -135738860 -135738859#1 4558710#0 4558710#2 4558710#3 22662931#0"/>
    </vehicle>
    <vehicle id="bus20" type="bus_bus" depart="95.26" departLane="best" departSpeed="max">
        <route edges="23230421 23230436#0 23230436#2 129091211#0 129091211#1 129091211#2 129091211#3 129091211#4 -376245928#1 -376245928#0 -716718730#5 -716718730#4 -716718730#3 -716718730#0 -308358612 -22738778#6 -22738778#5 -22738778#4 -22738778#1 -22738778#0 -184154249#4 -184154249#3 -184154249#2 -184154249#1 -184154249#0 -598209323 -16497962#5 -16497962#4 -16497962#2 -16497962#1 -16497962#0 -593758916#3 -593758916#2 -593758916#0 -4558722#3 -4558722#2 -4558722#1 -4558722#0 -595866513#1 -595866513#0 -945418667 217850415 217850417#0 217850417#1 4558721 531490208 531490205 531490203 4558709#1 531490202 531490210 531490209 531490207#0 531490207#1 531490211#0 531490211#1 593546513 531490204 217850418 217850414 88366575 194101579 126134871 531488941#0 531488941#1 531488934 194101580 531488940 531488935 10710456#0 10710456#2 10710456#3 10710456#4 220875038#0 220875038#1 220875038#2 -10710851#2 -10710851#1 -10710851#0 15580918#0 15580918#1 15580918#2 10710870#0 10710870#1 -134874247"/>
    </vehicle>
    <vehicle id="bus21" type="bus_bus" depart="100.02" departLane="best" departSpeed="max">
        <route edges="-25829087 10849959#2 10849959#3 22755983#6 22755983#7 22755983#8 22755983#9 10475923#0 10475923#1 160567765#1 160567765#2 160567765#3 160567765#4 307732080 143563981 143563982#0 143563982#1 -111450429#7 -111450429#6 -111450429#5 -111450429#4 -111450429#3 -111450429#2 -111450429#1 -111450429#0 -870680825#3 -365267526#1 -902624882#6 -902624882#5 -902624882#4 -902624882#3 -902624882#2 133101681#1 133101681#2 133101681#3 133101681#4 133101681#5 133101681#6 133101681#8 133101681#9 702361424#0 702361424#1 702361424#2 531144433#0 531144433#2 -4558706 -531144433#0 -702361424#2 -702361424#1"/>
    </vehicle>
    <vehicle id="bus22" type="bus_bus" depart="104.78" departLane="best">
        <route edges="-14308409#5 -14308409#4 -14308409#3 -14308409#2 -14308409#1 -14308409#0 -13882128#2 -13882128#1 1067710448#1 1067710448#2 1067710447 1067710445 218339223#0 218339223#2 593508729 218339216#0 218339216#1 218339216#2 218339216#3 218339216#4 943903134#0 943903134#1 943903129 -128675488#1 -22897412#1 -22897412#0 -31770065#0 -79263894 -79263891 -475040599 -143058818#2 -143058818#1 -143058818#0 4079616 433791466#0 433791466#1 218339209 623095598 623095599#0 623095599#2 475008094 345306205#0 345306205#1 345306205#2 345306205#5 345306205#6 573981205#2 573981202#0 573981202#1 141190357#2 567020091 746628360 4820020 366863519 366863441 433545660 366863508 27634191 366863552 851522232 14008681 851522231#0 851522231#1 -261600164 -935616348 -550889287#3 -550889287#2 -550889287#1 -550889287#0 -11988393#2 -11988393#1 -11988393#0 -945418660 4558721 217850419 945418667 595866513#0 595866513#1 4558722#0 4558722#1 4558722#2 4558722#3 593758916#0 593758916#2 593758916#3 16497962#0 16497962#1 16497962#2 16497962#4 16497962#5 598209323 23231264#1 764152779 -160567763#7 -4558727#4 -4558727#3 -4558727#2 -4558727#1"/>
    </vehicle>
    <vehicle id="bus23" type="bus_bus" depart="109.55" departLane="best">
        <route edges="-15803930#0 15803930#0 15803930#1 15803930#2 -22738778#1 -22738778#0 -184154249#4 -184154249#3 -184154249#2 -184154249#1 -184154249#0 -598209323 -16497962#5 -16497962#4 -16497962#2 -16497962#1 -16497962#0 -593758916#3 -593758916#2 -593758916#0 -308358615#0 -308358614#1 -308358614#0 -110234372#1 -110234372#0 -129091219#2 -129091219#1 -129091219#0 -129091222 -593758914#0 -593758908"/>
    </vehicle>
    <vehicle id="bus24" type="bus_bus" depart="114.31" departLane="best">
        <route edges="16616280#2 -16616280#2 -16616280#1 -16616280#0 -725826404#1 -725826404#0 -8610372#1 -8610372#0 -173068137#4 -173068137#3 -173068137#2 -186798123#2 -186798123#1 -186798123#0 -882373842#1 -882373842#0 -143952439#1 -143952439#0 -41385093 -8614225#1 -8614225#0 -115677235 -143563982#1 -143563982#0 -143563981 -307732080 -160567765#4 -160567765#3 -160567765#2 -160567765#1 -10475923#1 -10475923#0 -22755983#9 -22755983#8 -22755983#7 -22755983#6 -10849959#3 10850509#0 10850509#1 10850509#2 10850509#3 10850509#4 10850509#5 10850509#6"/>
    </vehicle>
    <vehicle id="bus26" type="bus_bus" depart="123.84" departLane="best" departSpeed="max">
        <route edges="-28446276 26621811#1 -23230322#2 -23230322#1 -23230322#0 131769864#5 131769864#6 -202070479#1 -202070479#0 -15678196 -15803869#6 -15803869#5 -15803869#4 -15803869#3 -15803869#2 -15803869#1 -15803869#0 4558748 345276762 23230098#0 23230098#1 345276761#0 345276761#1 345276761#2 345276761#3 345276761#4 345276761#5 345276761#6 573966850#0 573966850#1 22393187#0 22393187#1 110329520#0 110329520#1 110329520#2 186574307#0 186574307#1 186574307#2 186574307#3 186574307#4 186574307#5 186574307#6 186574307#7 186574307#8 186574307#9 186574307#10 -78446228#10 -78446228#9 -78446228#8 -78446228#7 -78446228#5 -78446228#4 -78446228#3 -78446228#2 78446234"/>
    </vehicle>
    <vehicle id="bus27" type="bus_bus" depart="128.60" departLane="best">
        <route edges="173131149#0 173131149#1 27557810 531266889 161388420#0 161388420#2 261947567 173131142#0 173131142#1 -13124427#2 -13124427#0 -545273069#2 -545273068 -545273066 -545287631#1 -545287631#0 -545287630#1 -545287630#0 -545287629#2 -545287629#1 -545287629#0 -545287627#1 -962942447 -531057020#1 -545273055 -962942445 -19847496 -145397814#0 -118387925#1 118387931#1 118387931#2 118387931#3 118387931#4 118387931#5 621786648#1 621786648#2 683688419#0 683688419#1 683688419#2 683688419#3 683688419#4 545025877 596103402 407708584#0 407708584#1 545095543 621790534 621790532#0 621790532#1 621790532#2 621790532#3 621790532#4 878218318#0 878218318#1 878218318#2 621790530#0 -8134337#1 -8134337#0 4672501#0 4672501#1 596103405 118387910#0 118387910#2 118387910#3 128553081#0 128553081#1 128553081#2 133144148 4929993#0 4929993#1 591815054 366863480 366863504 366863431 366863489#0 366863489#1 366863493 366863516 366863455 366863470 366863519 366863441 433545660 4259466 253623707 433545674 567016151#1 139257636#0 139257636#1 139257634 139257632 433545671 253623319 433545667 433545670 433552296 433552293 433552286 11987145#1 11987145#2 11987145#3 11987145#4 11987145#5 11987145#6 10710456#0 10710456#2 10710456#3 10710456#4 220875038#0 220875038#1 220875038#2 -10849099#4 -10849099#3 -10849099#2 -10849099#1 -10849099#0 27786782#0 27786782#1 10849720 10849959#1 10849959#2 10850509#0 10850509#1 10850509#2 10850509#3 10850509#4 25776132"/>
    </vehicle>
    <vehicle id="bus28" type="bus_bus" depart="133.36" departLane="best" departSpeed="max">
        <route edges="-21493855 -680101474#0 -21493703 -902310328#1 -278474626#1 -278474626#0 -532082994 -291623199#2 -291623199#1 -291623198 -1005511827#1 -1005511827#0 -532082996 -1005511828 -31728010#2 -31728010#1 -31728010#0 12353015#2 623095587#0 623095590#1 623095596 623095597#1 623095602 4079615#0 4079615#1 -623095584 -433791466#0 -4079616 143058818#0 143058818#1 143058818#2 475040599 79263891 141963704 31770065#0 500534478#0 500534478#1 365701787"/>
    </vehicle>
    <vehicle id="bus29" type="bus_bus" depart="138.12" departLane="best">
        <route edges="-201722836#1 -201722836#0 -201722834 -160574778 -160574779#5 -160574779#3 -10848286#4 -10848286#3 -10848286#1 -133140154#1 -133140154#0 -583856161#4 -583856161#3 -583856161#2 -583856161#1 -583856161#0 -133140155#1 -133140155#0 -10710604#6 -10710604#5 -10710604#4 -10710604#3 -10710604#2 -10710604#1 -10710604#0 -135738856 -78898222#1 -78898222#0 -531488939 -11987145#6 -11987145#5 -11987145#4 -11987145#3 -11987145#2 -11987145#1 -11987145#0 433552286 11987145#1 11987145#2 11987145#3"/>
    </vehicle>
    <vehicle id="bus30" type="bus_bus" depart="142.89" departLane="best" departSpeed="max">
        <route edges="929580061#0 142247589#0 142247589#1 142247589#2 142247589#3 929580063 305907254 8614215 129256109 -345710027#2 -345710027#1 -345710027#0 -110329506#5 -110329506#4 -110329506#3 -110329506#2 -110329506#1 -110329506#0 -186574308 -186574311#1 -186574311#0 -186574307#14 -186574307#13 -186574307#12 -186574307#11 -186574307#10 -186574307#9 -186574307#8 -186574307#7 -186574307#6 -186574307#5 -186574307#4 -186574307#3 -186574307#2 -186574307#1 -186574307#0 -110329520#2 -110329520#1 -110329520#0 -22393187#1 -22393187#0 15677023#0 15677023#1 32063067#0 32063067#1 345558714#0 -202252905#5 -202252905#4 -202252905#3 -26685996#1 -26685996#0 -4558697#2 26686177#0 26686177#1 26686177#3 26686236"/>
    </vehicle>
    <vehicle id="bus31" type="bus_bus" depart="147.65" departLane="best">
        <route edges="128675488#0 107577524#1 943834217 943834218#0 943834218#2 -1067710444#1 -218339216#3 -218339216#2 -218339216#1 -218339216#0 -593508729 -32024986 -218339223#0 -1067710445 -315941941 -1067710448#2 -1067710448#1 -1067710448#0 -686133613#1 -686133613#0 -1067710446#2 -1067710446#0 -4315823#2 -4315823#1 -4315823#0 4335621#0 4335621#1 315950484 1081741787 24558436 24558435#1 1091985879#1 1091985879#2 1091985879#3 335380591 173199456 335380585#0 151509445#0 151509445#1 223098437#0 32035424#1 32039701#0 32039701#1 27994391#0 27994391#1 32039684"/>
    </vehicle>
    <vehicle id="bus32" type="bus_bus" depart="152.41" departLane="best">
        <route edges="444832050#1 128933609#0 4820203#1 957187891 907134745#0 907134745#1 957186957 4820207 345276758#0 345276758#2 85354319#1 479544434 85354317 479544435#0 479544438 757443935 757443934 -757443937 -118387907#2 -118387907#0 757446764#0 757446764#1 757446762 621790530#0 -8134337#1 -8134337#0 4672501#0 4672501#1 596103405 118387910#0 118387910#2 118387910#3 128553081#0 128553081#1 128553081#2 133144148 4929993#0 4929993#1 591815054 366863480 366863504 366863431 366863489#0 366863489#1 366863493 366863516 366863455 366863470 366863519 366863441 433545660 4259466 253623707 433545674 567016151#1 139257636#0 139257636#1 139257634 139257632 433545671 253623319 433545667 433545670 433552296 433552293 433552302"/>
    </vehicle>
    <vehicle id="bus33" type="bus_bus" depart="157.18" departLane="best" departSpeed="max">
        <route edges="-26083145#1 -26083145#0 593546523 21970563#0 21970563#1 21970563#2 21970563#3 21970563#4 21970563#5 -593546522#5 -593546522#4 -593546522#3 -593546522#2 -593546522#1 -593546522#0 -345306209#3 -345306209#2 -345306209#1 -345306209#0 -34398220#1 -34398220#0 -498862791#0 -498862793#1 -498862793#0 -498862792#4 -498862792#3 -498862792#2 -498862792#1 -498862792#0 4048669#1 -12481082#1 -12481082#0 -12460985#10 -12460985#9 -12460985#8 -12460985#7 -12460985#5 -12460985#4 -12460985#3 -12480180"/>
    </vehicle>
    <vehicle id="bus34" type="bus_bus" depart="161.94" departLane="best">
        <route edges="-376245927#1 -15805095#2 -15805095#1 -15805095#0 -716718730#5 -716718730#4 -716718730#3 -716718730#0 -308358612 -22738778#6 -22738778#5 -22738778#4 -22738778#1 -22738778#0 -184154249#4 -184154249#3 -184154249#2 -184154249#1 -184154249#0 -598209323 -16497962#5 -16497962#4 -16497962#2 -16497962#1 -16497962#0 -593758916#3 -593758916#2 -593758916#0 -4558722#3 -4558722#2 -4558722#1 -4558722#0 -595866513#1 -595866513#0 -945418667 217850415 217850417#0 217850417#1 4558721 531490208 531490205 531490203 4558709#1 531490202 531490210 531490209 531490207#0 531490207#1 531490211#0 531490211#1 593546513 531490204 217850418 -993478688 -993478686 -96934529 433545662 433552307 993478687 433552302 433552299 995913999 433545668 107186354 433545663 253623706 13354547#0 13354547#1 253623999#1 433545648 332826606 332826605 366863477 366863512 366863497 366863424 366863473 366863524 129501930 15230388 366863449 4882941 757531001 474039602#1 474039608 372155613#0 372155613#1 372155613#2 474039599 474039588 474039582 462519335 372155614 8134336#1 8134336#2 477074801 169706088#0 169706088#1 744544926 4709082 118387928 705472490 705472489#0 705472489#1 61236818#0 61236818#1 34167947#0 34167947#1 442189491#0 442189491#1 118387903#0 118387903#1 -545025877 621786636#0 621786636#1 621786636#2 621786636#3 621786638#1 621786638#3 621786638#4 118387925#1 118387925#2 145397814#1 962942445 545273055 531057020#0 962942447 545287627#0 545287629#0 545287629#1 545287629#2 545287630#0 545287630#1 545287631#0 545287631#1 545273066 545273068 545273069#1 -545273069#2 -545273068"/>
    </vehicle>
    <vehicle id="bus35" type="bus_bus" depart="166.70" departLane="best" departSpeed="max">